version 3
run General-0-20241112-19:34:09-1624
attr configname General
attr datetime 20241112-19:34:09
attr datetimef 20241112-193409
attr experiment General
attr inifile omnetpp.ini
attr iterationvars ""
attr iterationvarsd ""
attr iterationvarsf ""
attr measurement ""
attr network Q2
attr processid 1624
attr repetition 0
attr replication #0
attr resultdir results
attr runnumber 0
attr seedset 0
config image-path ../../../../Users/91790/Downloads/inet-master/images
config network Q2
config sim-time-limit 10s
config **.client1.numApps 1
config **.client1.app[0].typename TcpSessionApp
config **.client1.app[0].connectAddress "\"server\""
config **.client1.app[0].connectPort 1000
config **.client1.app[0].sendBytes 1MB
config **.client2.numApps 1
config **.client2.app[0].typename TcpSessionApp
config **.client2.app[0].connectAddress "\"server\""
config **.client2.app[0].connectPort 1000
config **.client2.app[0].sendBytes 1MB
config **.client3.numApps 1
config **.client3.app[0].typename TcpSessionApp
config **.client3.app[0].connectAddress "\"server\""
config **.client3.app[0].connectPort 1000
config **.client3.app[0].sendBytes 1MB
config **.client4.numApps 1
config **.client4.app[0].typename TcpSessionApp
config **.client4.app[0].connectAddress "\"server\""
config **.client4.app[0].connectPort 1000
config **.client4.app[0].sendBytes 1MB
config **.server.numApps 1
config **.server.app[0].typename TcpEchoApp
config **.server.app[0].localPort 1000

par Q2.server.ethg$o[0].channel typename "\"inet.node.ethernet.Eth100M\""
par Q2.server.ethg$o[0].channel disabled false
attr mutable ""
par Q2.server.ethg$o[0].channel delay 5e-08s
attr mutable ""
attr unit s
par Q2.server.ethg$o[0].channel datarate 1e+08bps
attr mutable ""
attr unit bps
par Q2.server.ethg$o[0].channel ber 0
attr mutable ""
par Q2.server.ethg$o[0].channel per 0
attr mutable ""
par Q2.server.ethg$o[0].channel enabledLineStyle "\"solid\""
par Q2.server.ethg$o[0].channel disabledLineStyle "\"dashed\""
par Q2.server.ethg$o[0].channel disabledIcon "\"status/cross\""
par Q2.server.ethg$o[0].channel length 10m
attr unit m
par Q2.client1.ethg$o[0].channel typename "\"inet.node.ethernet.Eth100M\""
par Q2.client1.ethg$o[0].channel disabled false
attr mutable ""
par Q2.client1.ethg$o[0].channel delay 5e-08s
attr mutable ""
attr unit s
par Q2.client1.ethg$o[0].channel datarate 1e+08bps
attr mutable ""
attr unit bps
par Q2.client1.ethg$o[0].channel ber 0
attr mutable ""
par Q2.client1.ethg$o[0].channel per 0
attr mutable ""
par Q2.client1.ethg$o[0].channel enabledLineStyle "\"solid\""
par Q2.client1.ethg$o[0].channel disabledLineStyle "\"dashed\""
par Q2.client1.ethg$o[0].channel disabledIcon "\"status/cross\""
par Q2.client1.ethg$o[0].channel length 10m
attr unit m
par Q2.server.ethg$o[1].channel typename "\"inet.node.ethernet.Eth100M\""
par Q2.server.ethg$o[1].channel disabled false
attr mutable ""
par Q2.server.ethg$o[1].channel delay 5e-08s
attr mutable ""
attr unit s
par Q2.server.ethg$o[1].channel datarate 1e+08bps
attr mutable ""
attr unit bps
par Q2.server.ethg$o[1].channel ber 0
attr mutable ""
par Q2.server.ethg$o[1].channel per 0
attr mutable ""
par Q2.server.ethg$o[1].channel enabledLineStyle "\"solid\""
par Q2.server.ethg$o[1].channel disabledLineStyle "\"dashed\""
par Q2.server.ethg$o[1].channel disabledIcon "\"status/cross\""
par Q2.server.ethg$o[1].channel length 10m
attr unit m
par Q2.client2.ethg$o[0].channel typename "\"inet.node.ethernet.Eth100M\""
par Q2.client2.ethg$o[0].channel disabled false
attr mutable ""
par Q2.client2.ethg$o[0].channel delay 5e-08s
attr mutable ""
attr unit s
par Q2.client2.ethg$o[0].channel datarate 1e+08bps
attr mutable ""
attr unit bps
par Q2.client2.ethg$o[0].channel ber 0
attr mutable ""
par Q2.client2.ethg$o[0].channel per 0
attr mutable ""
par Q2.client2.ethg$o[0].channel enabledLineStyle "\"solid\""
par Q2.client2.ethg$o[0].channel disabledLineStyle "\"dashed\""
par Q2.client2.ethg$o[0].channel disabledIcon "\"status/cross\""
par Q2.client2.ethg$o[0].channel length 10m
attr unit m
par Q2.server.ethg$o[2].channel typename "\"inet.node.ethernet.Eth100M\""
par Q2.server.ethg$o[2].channel disabled false
attr mutable ""
par Q2.server.ethg$o[2].channel delay 5e-08s
attr mutable ""
attr unit s
par Q2.server.ethg$o[2].channel datarate 1e+08bps
attr mutable ""
attr unit bps
par Q2.server.ethg$o[2].channel ber 0
attr mutable ""
par Q2.server.ethg$o[2].channel per 0
attr mutable ""
par Q2.server.ethg$o[2].channel enabledLineStyle "\"solid\""
par Q2.server.ethg$o[2].channel disabledLineStyle "\"dashed\""
par Q2.server.ethg$o[2].channel disabledIcon "\"status/cross\""
par Q2.server.ethg$o[2].channel length 10m
attr unit m
par Q2.client4.ethg$o[0].channel typename "\"inet.node.ethernet.Eth100M\""
par Q2.client4.ethg$o[0].channel disabled false
attr mutable ""
par Q2.client4.ethg$o[0].channel delay 5e-08s
attr mutable ""
attr unit s
par Q2.client4.ethg$o[0].channel datarate 1e+08bps
attr mutable ""
attr unit bps
par Q2.client4.ethg$o[0].channel ber 0
attr mutable ""
par Q2.client4.ethg$o[0].channel per 0
attr mutable ""
par Q2.client4.ethg$o[0].channel enabledLineStyle "\"solid\""
par Q2.client4.ethg$o[0].channel disabledLineStyle "\"dashed\""
par Q2.client4.ethg$o[0].channel disabledIcon "\"status/cross\""
par Q2.client4.ethg$o[0].channel length 10m
attr unit m
par Q2.server.ethg$o[3].channel typename "\"inet.node.ethernet.Eth100M\""
par Q2.server.ethg$o[3].channel disabled false
attr mutable ""
par Q2.server.ethg$o[3].channel delay 5e-08s
attr mutable ""
attr unit s
par Q2.server.ethg$o[3].channel datarate 1e+08bps
attr mutable ""
attr unit bps
par Q2.server.ethg$o[3].channel ber 0
attr mutable ""
par Q2.server.ethg$o[3].channel per 0
attr mutable ""
par Q2.server.ethg$o[3].channel enabledLineStyle "\"solid\""
par Q2.server.ethg$o[3].channel disabledLineStyle "\"dashed\""
par Q2.server.ethg$o[3].channel disabledIcon "\"status/cross\""
par Q2.server.ethg$o[3].channel length 10m
attr unit m
par Q2.client3.ethg$o[0].channel typename "\"inet.node.ethernet.Eth100M\""
par Q2.client3.ethg$o[0].channel disabled false
attr mutable ""
par Q2.client3.ethg$o[0].channel delay 5e-08s
attr mutable ""
attr unit s
par Q2.client3.ethg$o[0].channel datarate 1e+08bps
attr mutable ""
attr unit bps
par Q2.client3.ethg$o[0].channel ber 0
attr mutable ""
par Q2.client3.ethg$o[0].channel per 0
attr mutable ""
par Q2.client3.ethg$o[0].channel enabledLineStyle "\"solid\""
par Q2.client3.ethg$o[0].channel disabledLineStyle "\"dashed\""
par Q2.client3.ethg$o[0].channel disabledIcon "\"status/cross\""
par Q2.client3.ethg$o[0].channel length 10m
attr unit m
par Q2.server.ethg$i[0].channel typename "\"ned.IdealChannel\""
par Q2.server.eth[0].phys$o.channel typename "\"ned.IdealChannel\""
par Q2.server.ethg$i[1].channel typename "\"ned.IdealChannel\""
par Q2.server.eth[1].phys$o.channel typename "\"ned.IdealChannel\""
par Q2.server.ethg$i[2].channel typename "\"ned.IdealChannel\""
par Q2.server.eth[2].phys$o.channel typename "\"ned.IdealChannel\""
par Q2.server.ethg$i[3].channel typename "\"ned.IdealChannel\""
par Q2.server.eth[3].phys$o.channel typename "\"ned.IdealChannel\""
par Q2.server.interfaceTable typename "\"inet.networklayer.common.InterfaceTable\""
par Q2.server.interfaceTable displayAddresses false
par Q2.server.cb typename "\"inet.common.MessageDispatcher\""
par Q2.server.cb displayStringTextFormat "\"processed %p pk (%l)\""
par Q2.server.cb interfaceTableModule "\"Q2.server.interfaceTable\""
par Q2.server.cb forwardServiceRegistration true
par Q2.server.cb forwardProtocolRegistration true
par Q2.server.cb interfaceMapping {}
par Q2.server.cb serviceMapping {}
par Q2.server.cb protocolMapping {}
par Q2.server.bl typename "\"inet.common.MessageDispatcher\""
par Q2.server.bl displayStringTextFormat "\"processed %p pk (%l)\""
par Q2.server.bl interfaceTableModule "\"Q2.server.interfaceTable\""
par Q2.server.bl forwardServiceRegistration true
par Q2.server.bl forwardProtocolRegistration true
par Q2.server.bl interfaceMapping {}
par Q2.server.bl serviceMapping {}
par Q2.server.bl protocolMapping {}
par Q2.server.ethernet typename "\"inet.linklayer.ethernet.basic.EthernetEncapsulation\""
par Q2.server.ethernet registerProtocol true
par Q2.server.ethernet interfaceTableModule "\"Q2.server.interfaceTable\""
par Q2.server.ethernet fcsMode "\"declared\""
attr enum declared,computed
par Q2.server.ethernet stopOperationExtraTime -1s
attr unit s
par Q2.server.ethernet stopOperationTimeout 2s
attr unit s
scalar Q2.server.ethernet decapPk:count 14948
attr interpolationmode none
attr recordingmode count
attr source decapPk
attr title "packets decapsulated, count"
scalar Q2.server.ethernet decapPk:sum(packetBytes) 4642824
attr interpolationmode none
attr recordingmode sum(packetBytes)
attr source decapPk
attr title "packets decapsulated, sum(packetBytes)"
scalar Q2.server.ethernet encapPk:count 14944
attr interpolationmode none
attr recordingmode count
attr source encapPk
attr title "packets encapsulated, count"
scalar Q2.server.ethernet encapPk:sum(packetBytes) 4597728
attr interpolationmode none
attr recordingmode sum(packetBytes)
attr source encapPk
attr title "packets encapsulated, sum(packetBytes)"
scalar Q2.server.ethernet pauseSent:count 0
attr recordingmode count
attr title "pause sent, count"
scalar Q2.server.ethernet pauseSent:sum 0
attr recordingmode sum
attr title "pause sent, sum"
par Q2.server.li typename "\"inet.common.MessageDispatcher\""
par Q2.server.li displayStringTextFormat "\"processed %p pk (%l)\""
par Q2.server.li interfaceTableModule "\"Q2.server.interfaceTable\""
par Q2.server.li forwardServiceRegistration true
par Q2.server.li forwardProtocolRegistration true
par Q2.server.li interfaceMapping {}
par Q2.server.li serviceMapping {}
par Q2.server.li protocolMapping {}
par Q2.server.lo[0].upperLayerIn.channel typename "\"ned.IdealChannel\""
par Q2.server.lo[0].lo.upperLayerOut.channel typename "\"ned.IdealChannel\""
par Q2.server.lo[0].lo typename "\"inet.linklayer.loopback.Loopback\""
par Q2.server.lo[0].lo interfaceTableModule "\"Q2.server.interfaceTable\""
par Q2.server.lo[0].lo mtu 4470B
attr unit B
scalar Q2.server.lo[0].lo rcvdPkFromHl:count 0
attr interpolationmode none
attr recordingmode count
attr source packetReceivedFromUpper
attr title "packets received from higher layer, count"
scalar Q2.server.lo[0].lo rcvdPkFromHl:sum(packetBytes) 0
attr interpolationmode none
attr recordingmode sum(packetBytes)
attr source packetReceivedFromUpper
attr title "packets received from higher layer, sum(packetBytes)"
scalar Q2.server.lo[0].lo passedUpPk:count 0
attr interpolationmode none
attr recordingmode count
attr source packetSentToUpper
attr title "packets passed to higher layer, count"
scalar Q2.server.lo[0].lo passedUpPk:sum(packetBytes) 0
attr interpolationmode none
attr recordingmode sum(packetBytes)
attr source packetSentToUpper
attr title "packets passed to higher layer, sum(packetBytes)"
par Q2.server.lo[0] typename "\"inet.linklayer.loopback.LoopbackInterface\""
par Q2.server.lo[0] displayStringTextFormat "\"%a (%i)\\n%m\""
par Q2.server.lo[0] recordPcap false
par Q2.server.lo[0] numPcapRecorders 0
par Q2.server.lo[0] interfaceTableModule "\"Q2.server.interfaceTable\""
scalar Q2.server.lo[0] packetDropInterfaceDown:count 0
attr interpolationmode none
attr recordingmode count
attr source packetDropReasonIsInterfaceDown(packetDropped)
attr title "packet drops: interface down, count"
scalar Q2.server.lo[0] packetDropInterfaceDown:sum(packetBytes) 0
attr interpolationmode none
attr recordingmode sum(packetBytes)
attr source packetDropReasonIsInterfaceDown(packetDropped)
attr title "packet drops: interface down, sum(packetBytes)"
scalar Q2.server.lo[0] packetDropNoCarrier:count 0
attr interpolationmode none
attr recordingmode count
attr source packetDropReasonIsNoCarrier(packetDropped)
attr title "packet drops: no carrier, count"
scalar Q2.server.lo[0] packetDropNoCarrier:sum(packetBytes) 0
attr interpolationmode none
attr recordingmode sum(packetBytes)
attr source packetDropReasonIsNoCarrier(packetDropped)
attr title "packet drops: no carrier, sum(packetBytes)"
par Q2.server.eth[0].mac.phys$o.channel typename "\"ned.IdealChannel\""
par Q2.server.eth[0].phys$i.channel typename "\"ned.IdealChannel\""
par Q2.server.eth[0].upperLayerIn.channel typename "\"ned.IdealChannel\""
par Q2.server.eth[0].mac.upperLayerOut.channel typename "\"ned.IdealChannel\""
par Q2.server.eth[0].queue typename "\"inet.linklayer.ethernet.common.EthernetQueue\""
par Q2.server.eth[0].queue displayStringTextFormat "\"contains %p pk (%l) pushed %u\\npulled %o removed %r dropped %d\""
par Q2.server.eth[0].queue packetCapacity 1000
par Q2.server.eth[0].queue dataCapacity -1b
attr unit b
par Q2.server.eth[0].queue dropperClass "\"inet::queueing::PacketAtCollectionEndDropper\""
par Q2.server.eth[0].queue comparatorClass "\"inet::EthernetFrameTypeComparator\""
par Q2.server.eth[0].queue bufferModule "\"\""
scalar Q2.server.eth[0].queue queueLength:last 0
attr autoWarmupFilter false
attr interpolationmode sample-hold
attr recordingmode last
attr source "warmup(atomic(constant0(packetPushEnded) + count(packetPushStarted) - count(packetPulled) - count(packetRemoved) - count(packetDropped)))"
attr title "queue length, last"
attr unit pk
scalar Q2.server.eth[0].queue queueLength:max 14
attr autoWarmupFilter false
attr interpolationmode sample-hold
attr recordingmode max
attr source "warmup(atomic(constant0(packetPushEnded) + count(packetPushStarted) - count(packetPulled) - count(packetRemoved) - count(packetDropped)))"
attr title "queue length, max"
attr unit pk
scalar Q2.server.eth[0].queue queueLength:timeavg 0.11687302599999
attr autoWarmupFilter false
attr interpolationmode sample-hold
attr recordingmode timeavg
attr source "warmup(atomic(constant0(packetPushEnded) + count(packetPushStarted) - count(packetPulled) - count(packetRemoved) - count(packetDropped)))"
attr title "queue length, timeavg"
attr unit pk
scalar Q2.server.eth[0].queue queueBitLength:last 0
attr autoWarmupFilter false
attr interpolationmode sample-hold
attr recordingmode last
attr source "warmup(atomic(constant0(packetPushEnded) + sum(packetLength(packetPushStarted)) - sum(packetLength(packetPulled)) - sum(packetLength(packetRemoved)) - sum(packetLength(packetDropped))))"
attr title "queue bit length, last"
attr unit b
scalar Q2.server.eth[0].queue queueBitLength:max 61776
attr autoWarmupFilter false
attr interpolationmode sample-hold
attr recordingmode max
attr source "warmup(atomic(constant0(packetPushEnded) + sum(packetLength(packetPushStarted)) - sum(packetLength(packetPulled)) - sum(packetLength(packetRemoved)) - sum(packetLength(packetDropped))))"
attr title "queue bit length, max"
attr unit b
scalar Q2.server.eth[0].queue queueBitLength:timeavg 305.65679696
attr autoWarmupFilter false
attr interpolationmode sample-hold
attr recordingmode timeavg
attr source "warmup(atomic(constant0(packetPushEnded) + sum(packetLength(packetPushStarted)) - sum(packetLength(packetPulled)) - sum(packetLength(packetRemoved)) - sum(packetLength(packetDropped))))"
attr title "queue bit length, timeavg"
attr unit b
statistic Q2.server.eth[0].queue queueingTime:histogram
field count 3736
field mean 0.00031282929871519
field stddev 0.00017265985702701
field min 0
field max 0.00059152
field sum 1.16873026
field sqrsum 0.0004769587445868
attr interpolationmode none
attr recordingmode histogram
attr source queueingTime(packetPulled)
attr title "queueing times"
attr unit s
bin	-inf	0
bin	0	26
bin	1e-05	1
bin	2e-05	1
bin	3e-05	0
bin	4e-05	267
bin	5e-05	1
bin	6e-05	2
bin	7e-05	0
bin	8e-05	262
bin	9e-05	4
bin	0.0001	0
bin	0.00011	1
bin	0.00012	262
bin	0.00013	0
bin	0.00014	4
bin	0.00015	1
bin	0.00016	262
bin	0.00017	0
bin	0.00018	2
bin	0.00019	1
bin	0.0002	262
bin	0.00021	0
bin	0.00022	0
bin	0.00023	3
bin	0.00024	0
bin	0.00025	262
bin	0.00026	0
bin	0.00027	2
bin	0.00028	1
bin	0.00029	262
bin	0.0003	0
bin	0.00031	0
bin	0.00032	3
bin	0.00033	262
bin	0.00034	0
bin	0.00035	0
bin	0.00036	1
bin	0.00037	262
bin	0.00038	0
bin	0.00039	0
bin	0.0004	0
bin	0.00041	1
bin	0.00042	262
bin	0.00043	0
bin	0.00044	0
bin	0.00045	1
bin	0.00046	262
bin	0.00047	0
bin	0.00048	0
bin	0.00049	0
bin	0.0005	263
bin	0.00051	0
bin	0.00052	0
bin	0.00053	0
bin	0.00054	265
bin	0.00055	0
bin	0.00056	0
bin	0.00057	0
bin	0.00058	0
bin	0.00059	265
bin	0.0006	0
bin	0.00061	0
bin	0.00062	0
bin	0.00063	0
bin	0.00064	0
bin	0.00065	0
bin	0.00066	0
bin	0.00067	0
bin	0.00068	0
bin	0.00069	0
bin	0.0007	0
bin	0.00071	0
bin	0.00072	0
bin	0.00073	0
bin	0.00074	0
scalar Q2.server.eth[0].queue outgoingPackets:count 3736
attr recordingmode count
attr source packetPulled
attr title "outgoing packets, count"
attr unit pk
scalar Q2.server.eth[0].queue outgoingPacketLengths:sum 9733440
attr interpolationmode none
attr recordingmode sum
attr source packetLength(packetPulled)
attr title "outgoing packet lengths, sum"
attr unit b
statistic Q2.server.eth[0].queue outgoingPacketLengths:histogram
field count 3736
field mean 2605.3104925054
field stddev 2144.0499094965
field min 368
field max 4752
field sum 9733440
field sqrsum 42528241664
attr interpolationmode none
attr recordingmode histogram
attr source packetLength(packetPulled)
attr title "outgoing packet lengths"
attr unit b
bin	-inf	0
bin	0	0
bin	100	0
bin	200	0
bin	300	1
bin	400	1869
bin	500	0
bin	600	0
bin	700	0
bin	800	0
bin	900	0
bin	1000	0
bin	1100	0
bin	1200	0
bin	1300	0
bin	1400	0
bin	1500	0
bin	1600	0
bin	1700	0
bin	1800	0
bin	1900	0
bin	2000	0
bin	2100	0
bin	2200	0
bin	2300	0
bin	2400	0
bin	2500	0
bin	2600	0
bin	2700	0
bin	2800	0
bin	2900	0
bin	3000	0
bin	3100	0
bin	3200	0
bin	3300	1
bin	3400	0
bin	3500	0
bin	3600	0
bin	3700	0
bin	3800	0
bin	3900	0
bin	4000	0
bin	4100	0
bin	4200	0
bin	4300	0
bin	4400	0
bin	4500	0
bin	4600	0
bin	4700	1865
bin	4800	0
bin	4900	0
bin	5000	0
bin	5100	0
bin	5200	0
bin	5300	0
bin	5400	0
bin	5500	0
bin	5600	0
bin	5700	0
bin	5800	0
bin	5900	0
statistic Q2.server.eth[0].queue flowQueueingTime:histogram
field count 0
field mean nan
field stddev nan
field min nan
field max nan
field sum 0
field sqrsum 0
attr interpolationmode none
attr recordingmode histogram
attr source queueingTime(demuxFlow(packetPulled))
attr title "flow queueing times"
attr unit s
bin	-inf	0
bin	0	0
bin	1	0
scalar Q2.server.eth[0].queue incomingPackets:count 3736
attr recordingmode count
attr source packetPushStarted
attr title "incoming packets, count"
attr unit pk
scalar Q2.server.eth[0].queue incomingPacketLengths:sum 9733440
attr interpolationmode none
attr recordingmode sum
attr source packetLength(packetPushStarted)
attr title "incoming packet lengths, sum"
attr unit b
statistic Q2.server.eth[0].queue incomingPacketLengths:histogram
field count 3736
field mean 2605.3104925054
field stddev 2144.0499094965
field min 368
field max 4752
field sum 9733440
field sqrsum 42528241664
attr interpolationmode none
attr recordingmode histogram
attr source packetLength(packetPushStarted)
attr title "incoming packet lengths"
attr unit b
bin	-inf	0
bin	0	0
bin	100	0
bin	200	0
bin	300	1
bin	400	1869
bin	500	0
bin	600	0
bin	700	0
bin	800	0
bin	900	0
bin	1000	0
bin	1100	0
bin	1200	0
bin	1300	0
bin	1400	0
bin	1500	0
bin	1600	0
bin	1700	0
bin	1800	0
bin	1900	0
bin	2000	0
bin	2100	0
bin	2200	0
bin	2300	0
bin	2400	0
bin	2500	0
bin	2600	0
bin	2700	0
bin	2800	0
bin	2900	0
bin	3000	0
bin	3100	0
bin	3200	0
bin	3300	1
bin	3400	0
bin	3500	0
bin	3600	0
bin	3700	0
bin	3800	0
bin	3900	0
bin	4000	0
bin	4100	0
bin	4200	0
bin	4300	0
bin	4400	0
bin	4500	0
bin	4600	0
bin	4700	1865
bin	4800	0
bin	4900	0
bin	5000	0
bin	5100	0
bin	5200	0
bin	5300	0
bin	5400	0
bin	5500	0
bin	5600	0
bin	5700	0
bin	5800	0
bin	5900	0
scalar Q2.server.eth[0].queue droppedPacketsQueueOverflow:count 0
attr interpolationmode none
attr recordingmode count
attr source packetDropReasonIsQueueOverflow(packetDropped)
attr title "dropped packets: queue overflow, count"
attr unit pk
scalar Q2.server.eth[0].queue droppedPacketLengthsQueueOverflow:sum 0
attr interpolationmode none
attr recordingmode sum
attr source packetLength(packetDropReasonIsQueueOverflow(packetDropped))
attr title "dropped packet lengths: queue overflow, sum"
attr unit b
par Q2.server.eth[0].mac typename "\"inet.linklayer.ethernet.basic.EthernetMac\""
par Q2.server.eth[0].mac interfaceTableModule "\"Q2.server.interfaceTable\""
par Q2.server.eth[0].mac displayStringTextFormat "\"rate: %b\\nsent: %s, rcvd: %r\\nqueue: %q, drop: %d\""
par Q2.server.eth[0].mac sendRawBytes false
par Q2.server.eth[0].mac promiscuous false
par Q2.server.eth[0].mac duplexMode true
par Q2.server.eth[0].mac allowNonstandardBitrate false
par Q2.server.eth[0].mac mtu 1500B
attr unit B
par Q2.server.eth[0].mac fcsMode "\"declared\""
attr enum declared,computed
par Q2.server.eth[0].mac stopOperationExtraTime -1s
attr unit s
par Q2.server.eth[0].mac stopOperationTimeout 2s
attr unit s
scalar Q2.server.eth[0].mac "simulated time" 10
scalar Q2.server.eth[0].mac full-duplex 1
scalar Q2.server.eth[0].mac "frames/sec sent" 373.6
scalar Q2.server.eth[0].mac "frames/sec rcvd" 373.7
scalar Q2.server.eth[0].mac "bits/sec sent" 982326.4
scalar Q2.server.eth[0].mac "bits/sec rcvd" 982377.6
scalar Q2.server.eth[0].mac "rx channel idle (%)" 98.9937056
scalar Q2.server.eth[0].mac "rx channel utilization (%)" 1.0062944
statistic Q2.server.eth[0].mac throughput:histogram
field count 136
field mean 26142495.025175
field stddev 42933513.678806
field min 0
field max 96848739.495798
field sum 3555379323.4238
field sqrsum 3.4179017684433e+17
attr interpolationmode linear
attr recordingmode histogram
attr source throughput(transmissionEnded)
attr title throughput
attr unit bps
bin	-inf	0
bin	0	99
bin	2000000	0
bin	4000000	0
bin	6000000	0
bin	8000000	0
bin	10000000	0
bin	12000000	0
bin	14000000	0
bin	16000000	0
bin	18000000	0
bin	20000000	0
bin	22000000	0
bin	24000000	0
bin	26000000	0
bin	28000000	0
bin	30000000	0
bin	32000000	0
bin	34000000	0
bin	36000000	0
bin	38000000	0
bin	40000000	0
bin	42000000	0
bin	44000000	0
bin	46000000	0
bin	48000000	0
bin	50000000	0
bin	52000000	0
bin	54000000	0
bin	56000000	0
bin	58000000	0
bin	60000000	0
bin	62000000	0
bin	64000000	0
bin	66000000	0
bin	68000000	0
bin	70000000	0
bin	72000000	0
bin	74000000	0
bin	76000000	0
bin	78000000	1
bin	80000000	0
bin	82000000	0
bin	84000000	0
bin	86000000	0
bin	88000000	0
bin	90000000	0
bin	92000000	0
bin	94000000	0
bin	96000000	36
bin	98000000	0
bin	100000000	0
bin	102000000	0
bin	104000000	0
bin	106000000	0
bin	108000000	0
bin	110000000	0
bin	112000000	0
bin	114000000	0
bin	116000000	0
bin	118000000	0
bin	120000000	0
bin	122000000	0
statistic Q2.server.eth[0].mac utilization:histogram
field count 136
field mean 26.142052472216
field stddev 42.932823051545
field min 0
field max 96.848739495799
field sum 3555.3191362214
field sqrsum 341779.02426324
attr interpolationmode linear
attr recordingmode histogram
attr source "100 * utilization(count(transmissionStarted) - count(transmissionEnded))"
attr title utilization
attr unit %
bin	-inf	0
bin	0	99
bin	2	0
bin	4	0
bin	6	0
bin	8	0
bin	10	0
bin	12	0
bin	14	0
bin	16	0
bin	18	0
bin	20	0
bin	22	0
bin	24	0
bin	26	0
bin	28	0
bin	30	0
bin	32	0
bin	34	0
bin	36	0
bin	38	0
bin	40	0
bin	42	0
bin	44	0
bin	46	0
bin	48	0
bin	50	0
bin	52	0
bin	54	0
bin	56	0
bin	58	0
bin	60	0
bin	62	0
bin	64	0
bin	66	0
bin	68	0
bin	70	0
bin	72	0
bin	74	0
bin	76	0
bin	78	1
bin	80	0
bin	82	0
bin	84	0
bin	86	0
bin	88	0
bin	90	0
bin	92	0
bin	94	0
bin	96	36
bin	98	0
bin	100	0
bin	102	0
bin	104	0
bin	106	0
bin	108	0
bin	110	0
bin	112	0
bin	114	0
bin	116	0
bin	118	0
bin	120	0
bin	122	0
scalar Q2.server.eth[0].mac txPk:count 3736
attr interpolationmode none
attr recordingmode count
attr source packetSentToLower
attr title "packets transmitted, count"
scalar Q2.server.eth[0].mac txPk:sum(packetBytes) 1227908
attr interpolationmode none
attr recordingmode sum(packetBytes)
attr source packetSentToLower
attr title "packets transmitted, sum(packetBytes)"
scalar Q2.server.eth[0].mac packetReceivedFromUpper:count 3736
attr interpolationmode none
attr recordingmode count
attr source packetReceivedFromUpper
attr title "packet bytes from higher layer, count"
scalar Q2.server.eth[0].mac packetReceivedFromUpper:sum(packetBytes) 1216680
attr interpolationmode none
attr recordingmode sum(packetBytes)
attr source packetReceivedFromUpper
attr title "packet bytes from higher layer, sum(packetBytes)"
scalar Q2.server.eth[0].mac passedUpPk:count 3737
attr interpolationmode none
attr recordingmode count
attr source packetSentToUpper
attr title "packets passed to higher layer, count"
scalar Q2.server.eth[0].mac passedUpPk:sum(packetBytes) 1227972
attr interpolationmode none
attr recordingmode sum(packetBytes)
attr source packetSentToUpper
attr title "packets passed to higher layer, sum(packetBytes)"
scalar Q2.server.eth[0].mac packetDropIncorrectlyReceived:count 0
attr interpolationmode none
attr recordingmode count
attr source packetDropReasonIsIncorrectlyReceived(packetDropped)
attr title "packet drop: incorrectly received, count"
scalar Q2.server.eth[0].mac packetDropIncorrectlyReceived:sum(packetBytes) 0
attr interpolationmode none
attr recordingmode sum(packetBytes)
attr source packetDropReasonIsIncorrectlyReceived(packetDropped)
attr title "packet drop: incorrectly received, sum(packetBytes)"
scalar Q2.server.eth[0].mac packetDropInterfaceDown:count 0
attr interpolationmode none
attr recordingmode count
attr source packetDropReasonIsInterfaceDown(packetDropped)
attr title "packet drop: interface down, count"
scalar Q2.server.eth[0].mac packetDropInterfaceDown:sum(packetBytes) 0
attr interpolationmode none
attr recordingmode sum(packetBytes)
attr source packetDropReasonIsInterfaceDown(packetDropped)
attr title "packet drop: interface down, sum(packetBytes)"
scalar Q2.server.eth[0].mac packetDropNotAddressedToUs:count 0
attr interpolationmode none
attr recordingmode count
attr source packetDropReasonIsNotAddressedToUs(packetDropped)
attr title "packet drop: not addressed to us, count"
scalar Q2.server.eth[0].mac packetDropNotAddressedToUs:sum(packetBytes) 0
attr interpolationmode none
attr recordingmode sum(packetBytes)
attr source packetDropReasonIsNotAddressedToUs(packetDropped)
attr title "packet drop: not addressed to us, sum(packetBytes)"
scalar Q2.server.eth[0].mac rxPausePkUnits:count 0
attr interpolationmode none
attr recordingmode count
attr title "pause units received, count"
scalar Q2.server.eth[0].mac rxPausePkUnits:sum 0
attr interpolationmode none
attr recordingmode sum
attr title "pause units received, sum"
scalar Q2.server.eth[0].mac txPausePkUnits:count 0
attr interpolationmode none
attr recordingmode count
attr title "pause units sent, count"
scalar Q2.server.eth[0].mac txPausePkUnits:sum 0
attr interpolationmode none
attr recordingmode sum
attr title "pause units sent, sum"
scalar Q2.server.eth[0].mac rxPkOk:count 3737
attr interpolationmode none
attr recordingmode count
attr source rxPkOk
attr title "packets received OK, count"
scalar Q2.server.eth[0].mac rxPkOk:sum(packetBytes) 1227972
attr interpolationmode none
attr recordingmode sum(packetBytes)
attr source rxPkOk
attr title "packets received OK, sum(packetBytes)"
par Q2.server.eth[0] typename "\"inet.linklayer.ethernet.basic.EthernetInterface\""
par Q2.server.eth[0] displayStringTextFormat "\"%a (%i)\\n%m\""
par Q2.server.eth[0] recordPcap false
par Q2.server.eth[0] numPcapRecorders 0
par Q2.server.eth[0] interfaceTableModule "\"Q2.server.interfaceTable\""
par Q2.server.eth[0] protocol "\"ethernetmac\""
par Q2.server.eth[0] address "\"0A-AA-00-00-00-01\""
attr mutable ""
par Q2.server.eth[0] duplexMode true
par Q2.server.eth[0] csmacdSupport false
par Q2.server.eth[0] bitrate 0bps
attr unit bps
par Q2.server.eth[0] fcsMode "\"declared\""
attr enum declared,computed
scalar Q2.server.eth[0] packetDropInterfaceDown:count 0
attr interpolationmode none
attr recordingmode count
attr source packetDropReasonIsInterfaceDown(packetDropped)
attr title "packet drops: interface down, count"
scalar Q2.server.eth[0] packetDropInterfaceDown:sum(packetBytes) 0
attr interpolationmode none
attr recordingmode sum(packetBytes)
attr source packetDropReasonIsInterfaceDown(packetDropped)
attr title "packet drops: interface down, sum(packetBytes)"
scalar Q2.server.eth[0] packetDropNoCarrier:count 0
attr interpolationmode none
attr recordingmode count
attr source packetDropReasonIsNoCarrier(packetDropped)
attr title "packet drops: no carrier, count"
scalar Q2.server.eth[0] packetDropNoCarrier:sum(packetBytes) 0
attr interpolationmode none
attr recordingmode sum(packetBytes)
attr source packetDropReasonIsNoCarrier(packetDropped)
attr title "packet drops: no carrier, sum(packetBytes)"
par Q2.server.eth[1].mac.phys$o.channel typename "\"ned.IdealChannel\""
par Q2.server.eth[1].phys$i.channel typename "\"ned.IdealChannel\""
par Q2.server.eth[1].upperLayerIn.channel typename "\"ned.IdealChannel\""
par Q2.server.eth[1].mac.upperLayerOut.channel typename "\"ned.IdealChannel\""
par Q2.server.eth[1].queue typename "\"inet.linklayer.ethernet.common.EthernetQueue\""
par Q2.server.eth[1].queue displayStringTextFormat "\"contains %p pk (%l) pushed %u\\npulled %o removed %r dropped %d\""
par Q2.server.eth[1].queue packetCapacity 1000
par Q2.server.eth[1].queue dataCapacity -1b
attr unit b
par Q2.server.eth[1].queue dropperClass "\"inet::queueing::PacketAtCollectionEndDropper\""
par Q2.server.eth[1].queue comparatorClass "\"inet::EthernetFrameTypeComparator\""
par Q2.server.eth[1].queue bufferModule "\"\""
scalar Q2.server.eth[1].queue queueLength:last 0
attr autoWarmupFilter false
attr interpolationmode sample-hold
attr recordingmode last
attr source "warmup(atomic(constant0(packetPushEnded) + count(packetPushStarted) - count(packetPulled) - count(packetRemoved) - count(packetDropped)))"
attr title "queue length, last"
attr unit pk
scalar Q2.server.eth[1].queue queueLength:max 14
attr autoWarmupFilter false
attr interpolationmode sample-hold
attr recordingmode max
attr source "warmup(atomic(constant0(packetPushEnded) + count(packetPushStarted) - count(packetPulled) - count(packetRemoved) - count(packetDropped)))"
attr title "queue length, max"
attr unit pk
scalar Q2.server.eth[1].queue queueLength:timeavg 0.11687302599999
attr autoWarmupFilter false
attr interpolationmode sample-hold
attr recordingmode timeavg
attr source "warmup(atomic(constant0(packetPushEnded) + count(packetPushStarted) - count(packetPulled) - count(packetRemoved) - count(packetDropped)))"
attr title "queue length, timeavg"
attr unit pk
scalar Q2.server.eth[1].queue queueBitLength:last 0
attr autoWarmupFilter false
attr interpolationmode sample-hold
attr recordingmode last
attr source "warmup(atomic(constant0(packetPushEnded) + sum(packetLength(packetPushStarted)) - sum(packetLength(packetPulled)) - sum(packetLength(packetRemoved)) - sum(packetLength(packetDropped))))"
attr title "queue bit length, last"
attr unit b
scalar Q2.server.eth[1].queue queueBitLength:max 61776
attr autoWarmupFilter false
attr interpolationmode sample-hold
attr recordingmode max
attr source "warmup(atomic(constant0(packetPushEnded) + sum(packetLength(packetPushStarted)) - sum(packetLength(packetPulled)) - sum(packetLength(packetRemoved)) - sum(packetLength(packetDropped))))"
attr title "queue bit length, max"
attr unit b
scalar Q2.server.eth[1].queue queueBitLength:timeavg 305.65679696
attr autoWarmupFilter false
attr interpolationmode sample-hold
attr recordingmode timeavg
attr source "warmup(atomic(constant0(packetPushEnded) + sum(packetLength(packetPushStarted)) - sum(packetLength(packetPulled)) - sum(packetLength(packetRemoved)) - sum(packetLength(packetDropped))))"
attr title "queue bit length, timeavg"
attr unit b
statistic Q2.server.eth[1].queue queueingTime:histogram
field count 3736
field mean 0.00031282929871519
field stddev 0.00017265985702701
field min 0
field max 0.00059152
field sum 1.16873026
field sqrsum 0.0004769587445868
attr interpolationmode none
attr recordingmode histogram
attr source queueingTime(packetPulled)
attr title "queueing times"
attr unit s
bin	-inf	0
bin	0	26
bin	1e-05	1
bin	2e-05	1
bin	3e-05	0
bin	4e-05	267
bin	5e-05	1
bin	6e-05	2
bin	7e-05	0
bin	8e-05	262
bin	9e-05	4
bin	0.0001	0
bin	0.00011	1
bin	0.00012	262
bin	0.00013	0
bin	0.00014	4
bin	0.00015	1
bin	0.00016	262
bin	0.00017	0
bin	0.00018	2
bin	0.00019	1
bin	0.0002	262
bin	0.00021	0
bin	0.00022	0
bin	0.00023	3
bin	0.00024	0
bin	0.00025	262
bin	0.00026	0
bin	0.00027	2
bin	0.00028	1
bin	0.00029	262
bin	0.0003	0
bin	0.00031	0
bin	0.00032	3
bin	0.00033	262
bin	0.00034	0
bin	0.00035	0
bin	0.00036	1
bin	0.00037	262
bin	0.00038	0
bin	0.00039	0
bin	0.0004	0
bin	0.00041	1
bin	0.00042	262
bin	0.00043	0
bin	0.00044	0
bin	0.00045	1
bin	0.00046	262
bin	0.00047	0
bin	0.00048	0
bin	0.00049	0
bin	0.0005	263
bin	0.00051	0
bin	0.00052	0
bin	0.00053	0
bin	0.00054	265
bin	0.00055	0
bin	0.00056	0
bin	0.00057	0
bin	0.00058	0
bin	0.00059	265
bin	0.0006	0
bin	0.00061	0
bin	0.00062	0
bin	0.00063	0
bin	0.00064	0
bin	0.00065	0
bin	0.00066	0
bin	0.00067	0
bin	0.00068	0
bin	0.00069	0
bin	0.0007	0
bin	0.00071	0
bin	0.00072	0
bin	0.00073	0
bin	0.00074	0
scalar Q2.server.eth[1].queue outgoingPackets:count 3736
attr recordingmode count
attr source packetPulled
attr title "outgoing packets, count"
attr unit pk
scalar Q2.server.eth[1].queue outgoingPacketLengths:sum 9733440
attr interpolationmode none
attr recordingmode sum
attr source packetLength(packetPulled)
attr title "outgoing packet lengths, sum"
attr unit b
statistic Q2.server.eth[1].queue outgoingPacketLengths:histogram
field count 3736
field mean 2605.3104925054
field stddev 2144.0499094965
field min 368
field max 4752
field sum 9733440
field sqrsum 42528241664
attr interpolationmode none
attr recordingmode histogram
attr source packetLength(packetPulled)
attr title "outgoing packet lengths"
attr unit b
bin	-inf	0
bin	0	0
bin	100	0
bin	200	0
bin	300	1
bin	400	1869
bin	500	0
bin	600	0
bin	700	0
bin	800	0
bin	900	0
bin	1000	0
bin	1100	0
bin	1200	0
bin	1300	0
bin	1400	0
bin	1500	0
bin	1600	0
bin	1700	0
bin	1800	0
bin	1900	0
bin	2000	0
bin	2100	0
bin	2200	0
bin	2300	0
bin	2400	0
bin	2500	0
bin	2600	0
bin	2700	0
bin	2800	0
bin	2900	0
bin	3000	0
bin	3100	0
bin	3200	0
bin	3300	1
bin	3400	0
bin	3500	0
bin	3600	0
bin	3700	0
bin	3800	0
bin	3900	0
bin	4000	0
bin	4100	0
bin	4200	0
bin	4300	0
bin	4400	0
bin	4500	0
bin	4600	0
bin	4700	1865
bin	4800	0
bin	4900	0
bin	5000	0
bin	5100	0
bin	5200	0
bin	5300	0
bin	5400	0
bin	5500	0
bin	5600	0
bin	5700	0
bin	5800	0
bin	5900	0
statistic Q2.server.eth[1].queue flowQueueingTime:histogram
field count 0
field mean nan
field stddev nan
field min nan
field max nan
field sum 0
field sqrsum 0
attr interpolationmode none
attr recordingmode histogram
attr source queueingTime(demuxFlow(packetPulled))
attr title "flow queueing times"
attr unit s
bin	-inf	0
bin	0	0
bin	1	0
scalar Q2.server.eth[1].queue incomingPackets:count 3736
attr recordingmode count
attr source packetPushStarted
attr title "incoming packets, count"
attr unit pk
scalar Q2.server.eth[1].queue incomingPacketLengths:sum 9733440
attr interpolationmode none
attr recordingmode sum
attr source packetLength(packetPushStarted)
attr title "incoming packet lengths, sum"
attr unit b
statistic Q2.server.eth[1].queue incomingPacketLengths:histogram
field count 3736
field mean 2605.3104925054
field stddev 2144.0499094965
field min 368
field max 4752
field sum 9733440
field sqrsum 42528241664
attr interpolationmode none
attr recordingmode histogram
attr source packetLength(packetPushStarted)
attr title "incoming packet lengths"
attr unit b
bin	-inf	0
bin	0	0
bin	100	0
bin	200	0
bin	300	1
bin	400	1869
bin	500	0
bin	600	0
bin	700	0
bin	800	0
bin	900	0
bin	1000	0
bin	1100	0
bin	1200	0
bin	1300	0
bin	1400	0
bin	1500	0
bin	1600	0
bin	1700	0
bin	1800	0
bin	1900	0
bin	2000	0
bin	2100	0
bin	2200	0
bin	2300	0
bin	2400	0
bin	2500	0
bin	2600	0
bin	2700	0
bin	2800	0
bin	2900	0
bin	3000	0
bin	3100	0
bin	3200	0
bin	3300	1
bin	3400	0
bin	3500	0
bin	3600	0
bin	3700	0
bin	3800	0
bin	3900	0
bin	4000	0
bin	4100	0
bin	4200	0
bin	4300	0
bin	4400	0
bin	4500	0
bin	4600	0
bin	4700	1865
bin	4800	0
bin	4900	0
bin	5000	0
bin	5100	0
bin	5200	0
bin	5300	0
bin	5400	0
bin	5500	0
bin	5600	0
bin	5700	0
bin	5800	0
bin	5900	0
scalar Q2.server.eth[1].queue droppedPacketsQueueOverflow:count 0
attr interpolationmode none
attr recordingmode count
attr source packetDropReasonIsQueueOverflow(packetDropped)
attr title "dropped packets: queue overflow, count"
attr unit pk
scalar Q2.server.eth[1].queue droppedPacketLengthsQueueOverflow:sum 0
attr interpolationmode none
attr recordingmode sum
attr source packetLength(packetDropReasonIsQueueOverflow(packetDropped))
attr title "dropped packet lengths: queue overflow, sum"
attr unit b
par Q2.server.eth[1].mac typename "\"inet.linklayer.ethernet.basic.EthernetMac\""
par Q2.server.eth[1].mac interfaceTableModule "\"Q2.server.interfaceTable\""
par Q2.server.eth[1].mac displayStringTextFormat "\"rate: %b\\nsent: %s, rcvd: %r\\nqueue: %q, drop: %d\""
par Q2.server.eth[1].mac sendRawBytes false
par Q2.server.eth[1].mac promiscuous false
par Q2.server.eth[1].mac duplexMode true
par Q2.server.eth[1].mac allowNonstandardBitrate false
par Q2.server.eth[1].mac mtu 1500B
attr unit B
par Q2.server.eth[1].mac fcsMode "\"declared\""
attr enum declared,computed
par Q2.server.eth[1].mac stopOperationExtraTime -1s
attr unit s
par Q2.server.eth[1].mac stopOperationTimeout 2s
attr unit s
scalar Q2.server.eth[1].mac "simulated time" 10
scalar Q2.server.eth[1].mac full-duplex 1
scalar Q2.server.eth[1].mac "frames/sec sent" 373.6
scalar Q2.server.eth[1].mac "frames/sec rcvd" 373.7
scalar Q2.server.eth[1].mac "bits/sec sent" 982326.4
scalar Q2.server.eth[1].mac "bits/sec rcvd" 982377.6
scalar Q2.server.eth[1].mac "rx channel idle (%)" 98.9937056
scalar Q2.server.eth[1].mac "rx channel utilization (%)" 1.0062944
statistic Q2.server.eth[1].mac throughput:histogram
field count 136
field mean 26142495.025175
field stddev 42933513.678806
field min 0
field max 96848739.495798
field sum 3555379323.4238
field sqrsum 3.4179017684433e+17
attr interpolationmode linear
attr recordingmode histogram
attr source throughput(transmissionEnded)
attr title throughput
attr unit bps
bin	-inf	0
bin	0	99
bin	2000000	0
bin	4000000	0
bin	6000000	0
bin	8000000	0
bin	10000000	0
bin	12000000	0
bin	14000000	0
bin	16000000	0
bin	18000000	0
bin	20000000	0
bin	22000000	0
bin	24000000	0
bin	26000000	0
bin	28000000	0
bin	30000000	0
bin	32000000	0
bin	34000000	0
bin	36000000	0
bin	38000000	0
bin	40000000	0
bin	42000000	0
bin	44000000	0
bin	46000000	0
bin	48000000	0
bin	50000000	0
bin	52000000	0
bin	54000000	0
bin	56000000	0
bin	58000000	0
bin	60000000	0
bin	62000000	0
bin	64000000	0
bin	66000000	0
bin	68000000	0
bin	70000000	0
bin	72000000	0
bin	74000000	0
bin	76000000	0
bin	78000000	1
bin	80000000	0
bin	82000000	0
bin	84000000	0
bin	86000000	0
bin	88000000	0
bin	90000000	0
bin	92000000	0
bin	94000000	0
bin	96000000	36
bin	98000000	0
bin	100000000	0
bin	102000000	0
bin	104000000	0
bin	106000000	0
bin	108000000	0
bin	110000000	0
bin	112000000	0
bin	114000000	0
bin	116000000	0
bin	118000000	0
bin	120000000	0
bin	122000000	0
statistic Q2.server.eth[1].mac utilization:histogram
field count 136
field mean 26.142052472216
field stddev 42.932823051545
field min 0
field max 96.848739495799
field sum 3555.3191362214
field sqrsum 341779.02426324
attr interpolationmode linear
attr recordingmode histogram
attr source "100 * utilization(count(transmissionStarted) - count(transmissionEnded))"
attr title utilization
attr unit %
bin	-inf	0
bin	0	99
bin	2	0
bin	4	0
bin	6	0
bin	8	0
bin	10	0
bin	12	0
bin	14	0
bin	16	0
bin	18	0
bin	20	0
bin	22	0
bin	24	0
bin	26	0
bin	28	0
bin	30	0
bin	32	0
bin	34	0
bin	36	0
bin	38	0
bin	40	0
bin	42	0
bin	44	0
bin	46	0
bin	48	0
bin	50	0
bin	52	0
bin	54	0
bin	56	0
bin	58	0
bin	60	0
bin	62	0
bin	64	0
bin	66	0
bin	68	0
bin	70	0
bin	72	0
bin	74	0
bin	76	0
bin	78	1
bin	80	0
bin	82	0
bin	84	0
bin	86	0
bin	88	0
bin	90	0
bin	92	0
bin	94	0
bin	96	36
bin	98	0
bin	100	0
bin	102	0
bin	104	0
bin	106	0
bin	108	0
bin	110	0
bin	112	0
bin	114	0
bin	116	0
bin	118	0
bin	120	0
bin	122	0
scalar Q2.server.eth[1].mac txPk:count 3736
attr interpolationmode none
attr recordingmode count
attr source packetSentToLower
attr title "packets transmitted, count"
scalar Q2.server.eth[1].mac txPk:sum(packetBytes) 1227908
attr interpolationmode none
attr recordingmode sum(packetBytes)
attr source packetSentToLower
attr title "packets transmitted, sum(packetBytes)"
scalar Q2.server.eth[1].mac packetReceivedFromUpper:count 3736
attr interpolationmode none
attr recordingmode count
attr source packetReceivedFromUpper
attr title "packet bytes from higher layer, count"
scalar Q2.server.eth[1].mac packetReceivedFromUpper:sum(packetBytes) 1216680
attr interpolationmode none
attr recordingmode sum(packetBytes)
attr source packetReceivedFromUpper
attr title "packet bytes from higher layer, sum(packetBytes)"
scalar Q2.server.eth[1].mac passedUpPk:count 3737
attr interpolationmode none
attr recordingmode count
attr source packetSentToUpper
attr title "packets passed to higher layer, count"
scalar Q2.server.eth[1].mac passedUpPk:sum(packetBytes) 1227972
attr interpolationmode none
attr recordingmode sum(packetBytes)
attr source packetSentToUpper
attr title "packets passed to higher layer, sum(packetBytes)"
scalar Q2.server.eth[1].mac packetDropIncorrectlyReceived:count 0
attr interpolationmode none
attr recordingmode count
attr source packetDropReasonIsIncorrectlyReceived(packetDropped)
attr title "packet drop: incorrectly received, count"
scalar Q2.server.eth[1].mac packetDropIncorrectlyReceived:sum(packetBytes) 0
attr interpolationmode none
attr recordingmode sum(packetBytes)
attr source packetDropReasonIsIncorrectlyReceived(packetDropped)
attr title "packet drop: incorrectly received, sum(packetBytes)"
scalar Q2.server.eth[1].mac packetDropInterfaceDown:count 0
attr interpolationmode none
attr recordingmode count
attr source packetDropReasonIsInterfaceDown(packetDropped)
attr title "packet drop: interface down, count"
scalar Q2.server.eth[1].mac packetDropInterfaceDown:sum(packetBytes) 0
attr interpolationmode none
attr recordingmode sum(packetBytes)
attr source packetDropReasonIsInterfaceDown(packetDropped)
attr title "packet drop: interface down, sum(packetBytes)"
scalar Q2.server.eth[1].mac packetDropNotAddressedToUs:count 0
attr interpolationmode none
attr recordingmode count
attr source packetDropReasonIsNotAddressedToUs(packetDropped)
attr title "packet drop: not addressed to us, count"
scalar Q2.server.eth[1].mac packetDropNotAddressedToUs:sum(packetBytes) 0
attr interpolationmode none
attr recordingmode sum(packetBytes)
attr source packetDropReasonIsNotAddressedToUs(packetDropped)
attr title "packet drop: not addressed to us, sum(packetBytes)"
scalar Q2.server.eth[1].mac rxPausePkUnits:count 0
attr interpolationmode none
attr recordingmode count
attr title "pause units received, count"
scalar Q2.server.eth[1].mac rxPausePkUnits:sum 0
attr interpolationmode none
attr recordingmode sum
attr title "pause units received, sum"
scalar Q2.server.eth[1].mac txPausePkUnits:count 0
attr interpolationmode none
attr recordingmode count
attr title "pause units sent, count"
scalar Q2.server.eth[1].mac txPausePkUnits:sum 0
attr interpolationmode none
attr recordingmode sum
attr title "pause units sent, sum"
scalar Q2.server.eth[1].mac rxPkOk:count 3737
attr interpolationmode none
attr recordingmode count
attr source rxPkOk
attr title "packets received OK, count"
scalar Q2.server.eth[1].mac rxPkOk:sum(packetBytes) 1227972
attr interpolationmode none
attr recordingmode sum(packetBytes)
attr source rxPkOk
attr title "packets received OK, sum(packetBytes)"
par Q2.server.eth[1] typename "\"inet.linklayer.ethernet.basic.EthernetInterface\""
par Q2.server.eth[1] displayStringTextFormat "\"%a (%i)\\n%m\""
par Q2.server.eth[1] recordPcap false
par Q2.server.eth[1] numPcapRecorders 0
par Q2.server.eth[1] interfaceTableModule "\"Q2.server.interfaceTable\""
par Q2.server.eth[1] protocol "\"ethernetmac\""
par Q2.server.eth[1] address "\"0A-AA-00-00-00-02\""
attr mutable ""
par Q2.server.eth[1] duplexMode true
par Q2.server.eth[1] csmacdSupport false
par Q2.server.eth[1] bitrate 0bps
attr unit bps
par Q2.server.eth[1] fcsMode "\"declared\""
attr enum declared,computed
scalar Q2.server.eth[1] packetDropInterfaceDown:count 0
attr interpolationmode none
attr recordingmode count
attr source packetDropReasonIsInterfaceDown(packetDropped)
attr title "packet drops: interface down, count"
scalar Q2.server.eth[1] packetDropInterfaceDown:sum(packetBytes) 0
attr interpolationmode none
attr recordingmode sum(packetBytes)
attr source packetDropReasonIsInterfaceDown(packetDropped)
attr title "packet drops: interface down, sum(packetBytes)"
scalar Q2.server.eth[1] packetDropNoCarrier:count 0
attr interpolationmode none
attr recordingmode count
attr source packetDropReasonIsNoCarrier(packetDropped)
attr title "packet drops: no carrier, count"
scalar Q2.server.eth[1] packetDropNoCarrier:sum(packetBytes) 0
attr interpolationmode none
attr recordingmode sum(packetBytes)
attr source packetDropReasonIsNoCarrier(packetDropped)
attr title "packet drops: no carrier, sum(packetBytes)"
par Q2.server.eth[2].mac.phys$o.channel typename "\"ned.IdealChannel\""
par Q2.server.eth[2].phys$i.channel typename "\"ned.IdealChannel\""
par Q2.server.eth[2].upperLayerIn.channel typename "\"ned.IdealChannel\""
par Q2.server.eth[2].mac.upperLayerOut.channel typename "\"ned.IdealChannel\""
par Q2.server.eth[2].queue typename "\"inet.linklayer.ethernet.common.EthernetQueue\""
par Q2.server.eth[2].queue displayStringTextFormat "\"contains %p pk (%l) pushed %u\\npulled %o removed %r dropped %d\""
par Q2.server.eth[2].queue packetCapacity 1000
par Q2.server.eth[2].queue dataCapacity -1b
attr unit b
par Q2.server.eth[2].queue dropperClass "\"inet::queueing::PacketAtCollectionEndDropper\""
par Q2.server.eth[2].queue comparatorClass "\"inet::EthernetFrameTypeComparator\""
par Q2.server.eth[2].queue bufferModule "\"\""
scalar Q2.server.eth[2].queue queueLength:last 0
attr autoWarmupFilter false
attr interpolationmode sample-hold
attr recordingmode last
attr source "warmup(atomic(constant0(packetPushEnded) + count(packetPushStarted) - count(packetPulled) - count(packetRemoved) - count(packetDropped)))"
attr title "queue length, last"
attr unit pk
scalar Q2.server.eth[2].queue queueLength:max 14
attr autoWarmupFilter false
attr interpolationmode sample-hold
attr recordingmode max
attr source "warmup(atomic(constant0(packetPushEnded) + count(packetPushStarted) - count(packetPulled) - count(packetRemoved) - count(packetDropped)))"
attr title "queue length, max"
attr unit pk
scalar Q2.server.eth[2].queue queueLength:timeavg 0.11687302599999
attr autoWarmupFilter false
attr interpolationmode sample-hold
attr recordingmode timeavg
attr source "warmup(atomic(constant0(packetPushEnded) + count(packetPushStarted) - count(packetPulled) - count(packetRemoved) - count(packetDropped)))"
attr title "queue length, timeavg"
attr unit pk
scalar Q2.server.eth[2].queue queueBitLength:last 0
attr autoWarmupFilter false
attr interpolationmode sample-hold
attr recordingmode last
attr source "warmup(atomic(constant0(packetPushEnded) + sum(packetLength(packetPushStarted)) - sum(packetLength(packetPulled)) - sum(packetLength(packetRemoved)) - sum(packetLength(packetDropped))))"
attr title "queue bit length, last"
attr unit b
scalar Q2.server.eth[2].queue queueBitLength:max 61776
attr autoWarmupFilter false
attr interpolationmode sample-hold
attr recordingmode max
attr source "warmup(atomic(constant0(packetPushEnded) + sum(packetLength(packetPushStarted)) - sum(packetLength(packetPulled)) - sum(packetLength(packetRemoved)) - sum(packetLength(packetDropped))))"
attr title "queue bit length, max"
attr unit b
scalar Q2.server.eth[2].queue queueBitLength:timeavg 305.65679696
attr autoWarmupFilter false
attr interpolationmode sample-hold
attr recordingmode timeavg
attr source "warmup(atomic(constant0(packetPushEnded) + sum(packetLength(packetPushStarted)) - sum(packetLength(packetPulled)) - sum(packetLength(packetRemoved)) - sum(packetLength(packetDropped))))"
attr title "queue bit length, timeavg"
attr unit b
statistic Q2.server.eth[2].queue queueingTime:histogram
field count 3736
field mean 0.00031282929871519
field stddev 0.00017265985702701
field min 0
field max 0.00059152
field sum 1.16873026
field sqrsum 0.0004769587445868
attr interpolationmode none
attr recordingmode histogram
attr source queueingTime(packetPulled)
attr title "queueing times"
attr unit s
bin	-inf	0
bin	0	26
bin	1e-05	1
bin	2e-05	1
bin	3e-05	0
bin	4e-05	267
bin	5e-05	1
bin	6e-05	2
bin	7e-05	0
bin	8e-05	262
bin	9e-05	4
bin	0.0001	0
bin	0.00011	1
bin	0.00012	262
bin	0.00013	0
bin	0.00014	4
bin	0.00015	1
bin	0.00016	262
bin	0.00017	0
bin	0.00018	2
bin	0.00019	1
bin	0.0002	262
bin	0.00021	0
bin	0.00022	0
bin	0.00023	3
bin	0.00024	0
bin	0.00025	262
bin	0.00026	0
bin	0.00027	2
bin	0.00028	1
bin	0.00029	262
bin	0.0003	0
bin	0.00031	0
bin	0.00032	3
bin	0.00033	262
bin	0.00034	0
bin	0.00035	0
bin	0.00036	1
bin	0.00037	262
bin	0.00038	0
bin	0.00039	0
bin	0.0004	0
bin	0.00041	1
bin	0.00042	262
bin	0.00043	0
bin	0.00044	0
bin	0.00045	1
bin	0.00046	262
bin	0.00047	0
bin	0.00048	0
bin	0.00049	0
bin	0.0005	263
bin	0.00051	0
bin	0.00052	0
bin	0.00053	0
bin	0.00054	265
bin	0.00055	0
bin	0.00056	0
bin	0.00057	0
bin	0.00058	0
bin	0.00059	265
bin	0.0006	0
bin	0.00061	0
bin	0.00062	0
bin	0.00063	0
bin	0.00064	0
bin	0.00065	0
bin	0.00066	0
bin	0.00067	0
bin	0.00068	0
bin	0.00069	0
bin	0.0007	0
bin	0.00071	0
bin	0.00072	0
bin	0.00073	0
bin	0.00074	0
scalar Q2.server.eth[2].queue outgoingPackets:count 3736
attr recordingmode count
attr source packetPulled
attr title "outgoing packets, count"
attr unit pk
scalar Q2.server.eth[2].queue outgoingPacketLengths:sum 9733440
attr interpolationmode none
attr recordingmode sum
attr source packetLength(packetPulled)
attr title "outgoing packet lengths, sum"
attr unit b
statistic Q2.server.eth[2].queue outgoingPacketLengths:histogram
field count 3736
field mean 2605.3104925054
field stddev 2144.0499094965
field min 368
field max 4752
field sum 9733440
field sqrsum 42528241664
attr interpolationmode none
attr recordingmode histogram
attr source packetLength(packetPulled)
attr title "outgoing packet lengths"
attr unit b
bin	-inf	0
bin	0	0
bin	100	0
bin	200	0
bin	300	1
bin	400	1869
bin	500	0
bin	600	0
bin	700	0
bin	800	0
bin	900	0
bin	1000	0
bin	1100	0
bin	1200	0
bin	1300	0
bin	1400	0
bin	1500	0
bin	1600	0
bin	1700	0
bin	1800	0
bin	1900	0
bin	2000	0
bin	2100	0
bin	2200	0
bin	2300	0
bin	2400	0
bin	2500	0
bin	2600	0
bin	2700	0
bin	2800	0
bin	2900	0
bin	3000	0
bin	3100	0
bin	3200	0
bin	3300	1
bin	3400	0
bin	3500	0
bin	3600	0
bin	3700	0
bin	3800	0
bin	3900	0
bin	4000	0
bin	4100	0
bin	4200	0
bin	4300	0
bin	4400	0
bin	4500	0
bin	4600	0
bin	4700	1865
bin	4800	0
bin	4900	0
bin	5000	0
bin	5100	0
bin	5200	0
bin	5300	0
bin	5400	0
bin	5500	0
bin	5600	0
bin	5700	0
bin	5800	0
bin	5900	0
statistic Q2.server.eth[2].queue flowQueueingTime:histogram
field count 0
field mean nan
field stddev nan
field min nan
field max nan
field sum 0
field sqrsum 0
attr interpolationmode none
attr recordingmode histogram
attr source queueingTime(demuxFlow(packetPulled))
attr title "flow queueing times"
attr unit s
bin	-inf	0
bin	0	0
bin	1	0
scalar Q2.server.eth[2].queue incomingPackets:count 3736
attr recordingmode count
attr source packetPushStarted
attr title "incoming packets, count"
attr unit pk
scalar Q2.server.eth[2].queue incomingPacketLengths:sum 9733440
attr interpolationmode none
attr recordingmode sum
attr source packetLength(packetPushStarted)
attr title "incoming packet lengths, sum"
attr unit b
statistic Q2.server.eth[2].queue incomingPacketLengths:histogram
field count 3736
field mean 2605.3104925054
field stddev 2144.0499094965
field min 368
field max 4752
field sum 9733440
field sqrsum 42528241664
attr interpolationmode none
attr recordingmode histogram
attr source packetLength(packetPushStarted)
attr title "incoming packet lengths"
attr unit b
bin	-inf	0
bin	0	0
bin	100	0
bin	200	0
bin	300	1
bin	400	1869
bin	500	0
bin	600	0
bin	700	0
bin	800	0
bin	900	0
bin	1000	0
bin	1100	0
bin	1200	0
bin	1300	0
bin	1400	0
bin	1500	0
bin	1600	0
bin	1700	0
bin	1800	0
bin	1900	0
bin	2000	0
bin	2100	0
bin	2200	0
bin	2300	0
bin	2400	0
bin	2500	0
bin	2600	0
bin	2700	0
bin	2800	0
bin	2900	0
bin	3000	0
bin	3100	0
bin	3200	0
bin	3300	1
bin	3400	0
bin	3500	0
bin	3600	0
bin	3700	0
bin	3800	0
bin	3900	0
bin	4000	0
bin	4100	0
bin	4200	0
bin	4300	0
bin	4400	0
bin	4500	0
bin	4600	0
bin	4700	1865
bin	4800	0
bin	4900	0
bin	5000	0
bin	5100	0
bin	5200	0
bin	5300	0
bin	5400	0
bin	5500	0
bin	5600	0
bin	5700	0
bin	5800	0
bin	5900	0
scalar Q2.server.eth[2].queue droppedPacketsQueueOverflow:count 0
attr interpolationmode none
attr recordingmode count
attr source packetDropReasonIsQueueOverflow(packetDropped)
attr title "dropped packets: queue overflow, count"
attr unit pk
scalar Q2.server.eth[2].queue droppedPacketLengthsQueueOverflow:sum 0
attr interpolationmode none
attr recordingmode sum
attr source packetLength(packetDropReasonIsQueueOverflow(packetDropped))
attr title "dropped packet lengths: queue overflow, sum"
attr unit b
par Q2.server.eth[2].mac typename "\"inet.linklayer.ethernet.basic.EthernetMac\""
par Q2.server.eth[2].mac interfaceTableModule "\"Q2.server.interfaceTable\""
par Q2.server.eth[2].mac displayStringTextFormat "\"rate: %b\\nsent: %s, rcvd: %r\\nqueue: %q, drop: %d\""
par Q2.server.eth[2].mac sendRawBytes false
par Q2.server.eth[2].mac promiscuous false
par Q2.server.eth[2].mac duplexMode true
par Q2.server.eth[2].mac allowNonstandardBitrate false
par Q2.server.eth[2].mac mtu 1500B
attr unit B
par Q2.server.eth[2].mac fcsMode "\"declared\""
attr enum declared,computed
par Q2.server.eth[2].mac stopOperationExtraTime -1s
attr unit s
par Q2.server.eth[2].mac stopOperationTimeout 2s
attr unit s
scalar Q2.server.eth[2].mac "simulated time" 10
scalar Q2.server.eth[2].mac full-duplex 1
scalar Q2.server.eth[2].mac "frames/sec sent" 373.6
scalar Q2.server.eth[2].mac "frames/sec rcvd" 373.7
scalar Q2.server.eth[2].mac "bits/sec sent" 982326.4
scalar Q2.server.eth[2].mac "bits/sec rcvd" 982377.6
scalar Q2.server.eth[2].mac "rx channel idle (%)" 98.9937056
scalar Q2.server.eth[2].mac "rx channel utilization (%)" 1.0062944
statistic Q2.server.eth[2].mac throughput:histogram
field count 136
field mean 26142495.025175
field stddev 42933513.678806
field min 0
field max 96848739.495798
field sum 3555379323.4238
field sqrsum 3.4179017684433e+17
attr interpolationmode linear
attr recordingmode histogram
attr source throughput(transmissionEnded)
attr title throughput
attr unit bps
bin	-inf	0
bin	0	99
bin	2000000	0
bin	4000000	0
bin	6000000	0
bin	8000000	0
bin	10000000	0
bin	12000000	0
bin	14000000	0
bin	16000000	0
bin	18000000	0
bin	20000000	0
bin	22000000	0
bin	24000000	0
bin	26000000	0
bin	28000000	0
bin	30000000	0
bin	32000000	0
bin	34000000	0
bin	36000000	0
bin	38000000	0
bin	40000000	0
bin	42000000	0
bin	44000000	0
bin	46000000	0
bin	48000000	0
bin	50000000	0
bin	52000000	0
bin	54000000	0
bin	56000000	0
bin	58000000	0
bin	60000000	0
bin	62000000	0
bin	64000000	0
bin	66000000	0
bin	68000000	0
bin	70000000	0
bin	72000000	0
bin	74000000	0
bin	76000000	0
bin	78000000	1
bin	80000000	0
bin	82000000	0
bin	84000000	0
bin	86000000	0
bin	88000000	0
bin	90000000	0
bin	92000000	0
bin	94000000	0
bin	96000000	36
bin	98000000	0
bin	100000000	0
bin	102000000	0
bin	104000000	0
bin	106000000	0
bin	108000000	0
bin	110000000	0
bin	112000000	0
bin	114000000	0
bin	116000000	0
bin	118000000	0
bin	120000000	0
bin	122000000	0
statistic Q2.server.eth[2].mac utilization:histogram
field count 136
field mean 26.142052472216
field stddev 42.932823051545
field min 0
field max 96.848739495799
field sum 3555.3191362214
field sqrsum 341779.02426324
attr interpolationmode linear
attr recordingmode histogram
attr source "100 * utilization(count(transmissionStarted) - count(transmissionEnded))"
attr title utilization
attr unit %
bin	-inf	0
bin	0	99
bin	2	0
bin	4	0
bin	6	0
bin	8	0
bin	10	0
bin	12	0
bin	14	0
bin	16	0
bin	18	0
bin	20	0
bin	22	0
bin	24	0
bin	26	0
bin	28	0
bin	30	0
bin	32	0
bin	34	0
bin	36	0
bin	38	0
bin	40	0
bin	42	0
bin	44	0
bin	46	0
bin	48	0
bin	50	0
bin	52	0
bin	54	0
bin	56	0
bin	58	0
bin	60	0
bin	62	0
bin	64	0
bin	66	0
bin	68	0
bin	70	0
bin	72	0
bin	74	0
bin	76	0
bin	78	1
bin	80	0
bin	82	0
bin	84	0
bin	86	0
bin	88	0
bin	90	0
bin	92	0
bin	94	0
bin	96	36
bin	98	0
bin	100	0
bin	102	0
bin	104	0
bin	106	0
bin	108	0
bin	110	0
bin	112	0
bin	114	0
bin	116	0
bin	118	0
bin	120	0
bin	122	0
scalar Q2.server.eth[2].mac txPk:count 3736
attr interpolationmode none
attr recordingmode count
attr source packetSentToLower
attr title "packets transmitted, count"
scalar Q2.server.eth[2].mac txPk:sum(packetBytes) 1227908
attr interpolationmode none
attr recordingmode sum(packetBytes)
attr source packetSentToLower
attr title "packets transmitted, sum(packetBytes)"
scalar Q2.server.eth[2].mac packetReceivedFromUpper:count 3736
attr interpolationmode none
attr recordingmode count
attr source packetReceivedFromUpper
attr title "packet bytes from higher layer, count"
scalar Q2.server.eth[2].mac packetReceivedFromUpper:sum(packetBytes) 1216680
attr interpolationmode none
attr recordingmode sum(packetBytes)
attr source packetReceivedFromUpper
attr title "packet bytes from higher layer, sum(packetBytes)"
scalar Q2.server.eth[2].mac passedUpPk:count 3737
attr interpolationmode none
attr recordingmode count
attr source packetSentToUpper
attr title "packets passed to higher layer, count"
scalar Q2.server.eth[2].mac passedUpPk:sum(packetBytes) 1227972
attr interpolationmode none
attr recordingmode sum(packetBytes)
attr source packetSentToUpper
attr title "packets passed to higher layer, sum(packetBytes)"
scalar Q2.server.eth[2].mac packetDropIncorrectlyReceived:count 0
attr interpolationmode none
attr recordingmode count
attr source packetDropReasonIsIncorrectlyReceived(packetDropped)
attr title "packet drop: incorrectly received, count"
scalar Q2.server.eth[2].mac packetDropIncorrectlyReceived:sum(packetBytes) 0
attr interpolationmode none
attr recordingmode sum(packetBytes)
attr source packetDropReasonIsIncorrectlyReceived(packetDropped)
attr title "packet drop: incorrectly received, sum(packetBytes)"
scalar Q2.server.eth[2].mac packetDropInterfaceDown:count 0
attr interpolationmode none
attr recordingmode count
attr source packetDropReasonIsInterfaceDown(packetDropped)
attr title "packet drop: interface down, count"
scalar Q2.server.eth[2].mac packetDropInterfaceDown:sum(packetBytes) 0
attr interpolationmode none
attr recordingmode sum(packetBytes)
attr source packetDropReasonIsInterfaceDown(packetDropped)
attr title "packet drop: interface down, sum(packetBytes)"
scalar Q2.server.eth[2].mac packetDropNotAddressedToUs:count 0
attr interpolationmode none
attr recordingmode count
attr source packetDropReasonIsNotAddressedToUs(packetDropped)
attr title "packet drop: not addressed to us, count"
scalar Q2.server.eth[2].mac packetDropNotAddressedToUs:sum(packetBytes) 0
attr interpolationmode none
attr recordingmode sum(packetBytes)
attr source packetDropReasonIsNotAddressedToUs(packetDropped)
attr title "packet drop: not addressed to us, sum(packetBytes)"
scalar Q2.server.eth[2].mac rxPausePkUnits:count 0
attr interpolationmode none
attr recordingmode count
attr title "pause units received, count"
scalar Q2.server.eth[2].mac rxPausePkUnits:sum 0
attr interpolationmode none
attr recordingmode sum
attr title "pause units received, sum"
scalar Q2.server.eth[2].mac txPausePkUnits:count 0
attr interpolationmode none
attr recordingmode count
attr title "pause units sent, count"
scalar Q2.server.eth[2].mac txPausePkUnits:sum 0
attr interpolationmode none
attr recordingmode sum
attr title "pause units sent, sum"
scalar Q2.server.eth[2].mac rxPkOk:count 3737
attr interpolationmode none
attr recordingmode count
attr source rxPkOk
attr title "packets received OK, count"
scalar Q2.server.eth[2].mac rxPkOk:sum(packetBytes) 1227972
attr interpolationmode none
attr recordingmode sum(packetBytes)
attr source rxPkOk
attr title "packets received OK, sum(packetBytes)"
par Q2.server.eth[2] typename "\"inet.linklayer.ethernet.basic.EthernetInterface\""
par Q2.server.eth[2] displayStringTextFormat "\"%a (%i)\\n%m\""
par Q2.server.eth[2] recordPcap false
par Q2.server.eth[2] numPcapRecorders 0
par Q2.server.eth[2] interfaceTableModule "\"Q2.server.interfaceTable\""
par Q2.server.eth[2] protocol "\"ethernetmac\""
par Q2.server.eth[2] address "\"0A-AA-00-00-00-03\""
attr mutable ""
par Q2.server.eth[2] duplexMode true
par Q2.server.eth[2] csmacdSupport false
par Q2.server.eth[2] bitrate 0bps
attr unit bps
par Q2.server.eth[2] fcsMode "\"declared\""
attr enum declared,computed
scalar Q2.server.eth[2] packetDropInterfaceDown:count 0
attr interpolationmode none
attr recordingmode count
attr source packetDropReasonIsInterfaceDown(packetDropped)
attr title "packet drops: interface down, count"
scalar Q2.server.eth[2] packetDropInterfaceDown:sum(packetBytes) 0
attr interpolationmode none
attr recordingmode sum(packetBytes)
attr source packetDropReasonIsInterfaceDown(packetDropped)
attr title "packet drops: interface down, sum(packetBytes)"
scalar Q2.server.eth[2] packetDropNoCarrier:count 0
attr interpolationmode none
attr recordingmode count
attr source packetDropReasonIsNoCarrier(packetDropped)
attr title "packet drops: no carrier, count"
scalar Q2.server.eth[2] packetDropNoCarrier:sum(packetBytes) 0
attr interpolationmode none
attr recordingmode sum(packetBytes)
attr source packetDropReasonIsNoCarrier(packetDropped)
attr title "packet drops: no carrier, sum(packetBytes)"
par Q2.server.eth[3].mac.phys$o.channel typename "\"ned.IdealChannel\""
par Q2.server.eth[3].phys$i.channel typename "\"ned.IdealChannel\""
par Q2.server.eth[3].upperLayerIn.channel typename "\"ned.IdealChannel\""
par Q2.server.eth[3].mac.upperLayerOut.channel typename "\"ned.IdealChannel\""
par Q2.server.eth[3].queue typename "\"inet.linklayer.ethernet.common.EthernetQueue\""
par Q2.server.eth[3].queue displayStringTextFormat "\"contains %p pk (%l) pushed %u\\npulled %o removed %r dropped %d\""
par Q2.server.eth[3].queue packetCapacity 1000
par Q2.server.eth[3].queue dataCapacity -1b
attr unit b
par Q2.server.eth[3].queue dropperClass "\"inet::queueing::PacketAtCollectionEndDropper\""
par Q2.server.eth[3].queue comparatorClass "\"inet::EthernetFrameTypeComparator\""
par Q2.server.eth[3].queue bufferModule "\"\""
scalar Q2.server.eth[3].queue queueLength:last 0
attr autoWarmupFilter false
attr interpolationmode sample-hold
attr recordingmode last
attr source "warmup(atomic(constant0(packetPushEnded) + count(packetPushStarted) - count(packetPulled) - count(packetRemoved) - count(packetDropped)))"
attr title "queue length, last"
attr unit pk
scalar Q2.server.eth[3].queue queueLength:max 14
attr autoWarmupFilter false
attr interpolationmode sample-hold
attr recordingmode max
attr source "warmup(atomic(constant0(packetPushEnded) + count(packetPushStarted) - count(packetPulled) - count(packetRemoved) - count(packetDropped)))"
attr title "queue length, max"
attr unit pk
scalar Q2.server.eth[3].queue queueLength:timeavg 0.11687302599999
attr autoWarmupFilter false
attr interpolationmode sample-hold
attr recordingmode timeavg
attr source "warmup(atomic(constant0(packetPushEnded) + count(packetPushStarted) - count(packetPulled) - count(packetRemoved) - count(packetDropped)))"
attr title "queue length, timeavg"
attr unit pk
scalar Q2.server.eth[3].queue queueBitLength:last 0
attr autoWarmupFilter false
attr interpolationmode sample-hold
attr recordingmode last
attr source "warmup(atomic(constant0(packetPushEnded) + sum(packetLength(packetPushStarted)) - sum(packetLength(packetPulled)) - sum(packetLength(packetRemoved)) - sum(packetLength(packetDropped))))"
attr title "queue bit length, last"
attr unit b
scalar Q2.server.eth[3].queue queueBitLength:max 61776
attr autoWarmupFilter false
attr interpolationmode sample-hold
attr recordingmode max
attr source "warmup(atomic(constant0(packetPushEnded) + sum(packetLength(packetPushStarted)) - sum(packetLength(packetPulled)) - sum(packetLength(packetRemoved)) - sum(packetLength(packetDropped))))"
attr title "queue bit length, max"
attr unit b
scalar Q2.server.eth[3].queue queueBitLength:timeavg 305.65679696
attr autoWarmupFilter false
attr interpolationmode sample-hold
attr recordingmode timeavg
attr source "warmup(atomic(constant0(packetPushEnded) + sum(packetLength(packetPushStarted)) - sum(packetLength(packetPulled)) - sum(packetLength(packetRemoved)) - sum(packetLength(packetDropped))))"
attr title "queue bit length, timeavg"
attr unit b
statistic Q2.server.eth[3].queue queueingTime:histogram
field count 3736
field mean 0.00031282929871519
field stddev 0.00017265985702701
field min 0
field max 0.00059152
field sum 1.16873026
field sqrsum 0.0004769587445868
attr interpolationmode none
attr recordingmode histogram
attr source queueingTime(packetPulled)
attr title "queueing times"
attr unit s
bin	-inf	0
bin	0	26
bin	1e-05	1
bin	2e-05	1
bin	3e-05	0
bin	4e-05	267
bin	5e-05	1
bin	6e-05	2
bin	7e-05	0
bin	8e-05	262
bin	9e-05	4
bin	0.0001	0
bin	0.00011	1
bin	0.00012	262
bin	0.00013	0
bin	0.00014	4
bin	0.00015	1
bin	0.00016	262
bin	0.00017	0
bin	0.00018	2
bin	0.00019	1
bin	0.0002	262
bin	0.00021	0
bin	0.00022	0
bin	0.00023	3
bin	0.00024	0
bin	0.00025	262
bin	0.00026	0
bin	0.00027	2
bin	0.00028	1
bin	0.00029	262
bin	0.0003	0
bin	0.00031	0
bin	0.00032	3
bin	0.00033	262
bin	0.00034	0
bin	0.00035	0
bin	0.00036	1
bin	0.00037	262
bin	0.00038	0
bin	0.00039	0
bin	0.0004	0
bin	0.00041	1
bin	0.00042	262
bin	0.00043	0
bin	0.00044	0
bin	0.00045	1
bin	0.00046	262
bin	0.00047	0
bin	0.00048	0
bin	0.00049	0
bin	0.0005	263
bin	0.00051	0
bin	0.00052	0
bin	0.00053	0
bin	0.00054	265
bin	0.00055	0
bin	0.00056	0
bin	0.00057	0
bin	0.00058	0
bin	0.00059	265
bin	0.0006	0
bin	0.00061	0
bin	0.00062	0
bin	0.00063	0
bin	0.00064	0
bin	0.00065	0
bin	0.00066	0
bin	0.00067	0
bin	0.00068	0
bin	0.00069	0
bin	0.0007	0
bin	0.00071	0
bin	0.00072	0
bin	0.00073	0
bin	0.00074	0
scalar Q2.server.eth[3].queue outgoingPackets:count 3736
attr recordingmode count
attr source packetPulled
attr title "outgoing packets, count"
attr unit pk
scalar Q2.server.eth[3].queue outgoingPacketLengths:sum 9733440
attr interpolationmode none
attr recordingmode sum
attr source packetLength(packetPulled)
attr title "outgoing packet lengths, sum"
attr unit b
statistic Q2.server.eth[3].queue outgoingPacketLengths:histogram
field count 3736
field mean 2605.3104925054
field stddev 2144.0499094965
field min 368
field max 4752
field sum 9733440
field sqrsum 42528241664
attr interpolationmode none
attr recordingmode histogram
attr source packetLength(packetPulled)
attr title "outgoing packet lengths"
attr unit b
bin	-inf	0
bin	0	0
bin	100	0
bin	200	0
bin	300	1
bin	400	1869
bin	500	0
bin	600	0
bin	700	0
bin	800	0
bin	900	0
bin	1000	0
bin	1100	0
bin	1200	0
bin	1300	0
bin	1400	0
bin	1500	0
bin	1600	0
bin	1700	0
bin	1800	0
bin	1900	0
bin	2000	0
bin	2100	0
bin	2200	0
bin	2300	0
bin	2400	0
bin	2500	0
bin	2600	0
bin	2700	0
bin	2800	0
bin	2900	0
bin	3000	0
bin	3100	0
bin	3200	0
bin	3300	1
bin	3400	0
bin	3500	0
bin	3600	0
bin	3700	0
bin	3800	0
bin	3900	0
bin	4000	0
bin	4100	0
bin	4200	0
bin	4300	0
bin	4400	0
bin	4500	0
bin	4600	0
bin	4700	1865
bin	4800	0
bin	4900	0
bin	5000	0
bin	5100	0
bin	5200	0
bin	5300	0
bin	5400	0
bin	5500	0
bin	5600	0
bin	5700	0
bin	5800	0
bin	5900	0
statistic Q2.server.eth[3].queue flowQueueingTime:histogram
field count 0
field mean nan
field stddev nan
field min nan
field max nan
field sum 0
field sqrsum 0
attr interpolationmode none
attr recordingmode histogram
attr source queueingTime(demuxFlow(packetPulled))
attr title "flow queueing times"
attr unit s
bin	-inf	0
bin	0	0
bin	1	0
scalar Q2.server.eth[3].queue incomingPackets:count 3736
attr recordingmode count
attr source packetPushStarted
attr title "incoming packets, count"
attr unit pk
scalar Q2.server.eth[3].queue incomingPacketLengths:sum 9733440
attr interpolationmode none
attr recordingmode sum
attr source packetLength(packetPushStarted)
attr title "incoming packet lengths, sum"
attr unit b
statistic Q2.server.eth[3].queue incomingPacketLengths:histogram
field count 3736
field mean 2605.3104925054
field stddev 2144.0499094965
field min 368
field max 4752
field sum 9733440
field sqrsum 42528241664
attr interpolationmode none
attr recordingmode histogram
attr source packetLength(packetPushStarted)
attr title "incoming packet lengths"
attr unit b
bin	-inf	0
bin	0	0
bin	100	0
bin	200	0
bin	300	1
bin	400	1869
bin	500	0
bin	600	0
bin	700	0
bin	800	0
bin	900	0
bin	1000	0
bin	1100	0
bin	1200	0
bin	1300	0
bin	1400	0
bin	1500	0
bin	1600	0
bin	1700	0
bin	1800	0
bin	1900	0
bin	2000	0
bin	2100	0
bin	2200	0
bin	2300	0
bin	2400	0
bin	2500	0
bin	2600	0
bin	2700	0
bin	2800	0
bin	2900	0
bin	3000	0
bin	3100	0
bin	3200	0
bin	3300	1
bin	3400	0
bin	3500	0
bin	3600	0
bin	3700	0
bin	3800	0
bin	3900	0
bin	4000	0
bin	4100	0
bin	4200	0
bin	4300	0
bin	4400	0
bin	4500	0
bin	4600	0
bin	4700	1865
bin	4800	0
bin	4900	0
bin	5000	0
bin	5100	0
bin	5200	0
bin	5300	0
bin	5400	0
bin	5500	0
bin	5600	0
bin	5700	0
bin	5800	0
bin	5900	0
scalar Q2.server.eth[3].queue droppedPacketsQueueOverflow:count 0
attr interpolationmode none
attr recordingmode count
attr source packetDropReasonIsQueueOverflow(packetDropped)
attr title "dropped packets: queue overflow, count"
attr unit pk
scalar Q2.server.eth[3].queue droppedPacketLengthsQueueOverflow:sum 0
attr interpolationmode none
attr recordingmode sum
attr source packetLength(packetDropReasonIsQueueOverflow(packetDropped))
attr title "dropped packet lengths: queue overflow, sum"
attr unit b
par Q2.server.eth[3].mac typename "\"inet.linklayer.ethernet.basic.EthernetMac\""
par Q2.server.eth[3].mac interfaceTableModule "\"Q2.server.interfaceTable\""
par Q2.server.eth[3].mac displayStringTextFormat "\"rate: %b\\nsent: %s, rcvd: %r\\nqueue: %q, drop: %d\""
par Q2.server.eth[3].mac sendRawBytes false
par Q2.server.eth[3].mac promiscuous false
par Q2.server.eth[3].mac duplexMode true
par Q2.server.eth[3].mac allowNonstandardBitrate false
par Q2.server.eth[3].mac mtu 1500B
attr unit B
par Q2.server.eth[3].mac fcsMode "\"declared\""
attr enum declared,computed
par Q2.server.eth[3].mac stopOperationExtraTime -1s
attr unit s
par Q2.server.eth[3].mac stopOperationTimeout 2s
attr unit s
scalar Q2.server.eth[3].mac "simulated time" 10
scalar Q2.server.eth[3].mac full-duplex 1
scalar Q2.server.eth[3].mac "frames/sec sent" 373.6
scalar Q2.server.eth[3].mac "frames/sec rcvd" 373.7
scalar Q2.server.eth[3].mac "bits/sec sent" 982326.4
scalar Q2.server.eth[3].mac "bits/sec rcvd" 982377.6
scalar Q2.server.eth[3].mac "rx channel idle (%)" 98.9937056
scalar Q2.server.eth[3].mac "rx channel utilization (%)" 1.0062944
statistic Q2.server.eth[3].mac throughput:histogram
field count 136
field mean 26142495.025175
field stddev 42933513.678806
field min 0
field max 96848739.495798
field sum 3555379323.4238
field sqrsum 3.4179017684433e+17
attr interpolationmode linear
attr recordingmode histogram
attr source throughput(transmissionEnded)
attr title throughput
attr unit bps
bin	-inf	0
bin	0	99
bin	2000000	0
bin	4000000	0
bin	6000000	0
bin	8000000	0
bin	10000000	0
bin	12000000	0
bin	14000000	0
bin	16000000	0
bin	18000000	0
bin	20000000	0
bin	22000000	0
bin	24000000	0
bin	26000000	0
bin	28000000	0
bin	30000000	0
bin	32000000	0
bin	34000000	0
bin	36000000	0
bin	38000000	0
bin	40000000	0
bin	42000000	0
bin	44000000	0
bin	46000000	0
bin	48000000	0
bin	50000000	0
bin	52000000	0
bin	54000000	0
bin	56000000	0
bin	58000000	0
bin	60000000	0
bin	62000000	0
bin	64000000	0
bin	66000000	0
bin	68000000	0
bin	70000000	0
bin	72000000	0
bin	74000000	0
bin	76000000	0
bin	78000000	1
bin	80000000	0
bin	82000000	0
bin	84000000	0
bin	86000000	0
bin	88000000	0
bin	90000000	0
bin	92000000	0
bin	94000000	0
bin	96000000	36
bin	98000000	0
bin	100000000	0
bin	102000000	0
bin	104000000	0
bin	106000000	0
bin	108000000	0
bin	110000000	0
bin	112000000	0
bin	114000000	0
bin	116000000	0
bin	118000000	0
bin	120000000	0
bin	122000000	0
statistic Q2.server.eth[3].mac utilization:histogram
field count 136
field mean 26.142052472216
field stddev 42.932823051545
field min 0
field max 96.848739495799
field sum 3555.3191362214
field sqrsum 341779.02426324
attr interpolationmode linear
attr recordingmode histogram
attr source "100 * utilization(count(transmissionStarted) - count(transmissionEnded))"
attr title utilization
attr unit %
bin	-inf	0
bin	0	99
bin	2	0
bin	4	0
bin	6	0
bin	8	0
bin	10	0
bin	12	0
bin	14	0
bin	16	0
bin	18	0
bin	20	0
bin	22	0
bin	24	0
bin	26	0
bin	28	0
bin	30	0
bin	32	0
bin	34	0
bin	36	0
bin	38	0
bin	40	0
bin	42	0
bin	44	0
bin	46	0
bin	48	0
bin	50	0
bin	52	0
bin	54	0
bin	56	0
bin	58	0
bin	60	0
bin	62	0
bin	64	0
bin	66	0
bin	68	0
bin	70	0
bin	72	0
bin	74	0
bin	76	0
bin	78	1
bin	80	0
bin	82	0
bin	84	0
bin	86	0
bin	88	0
bin	90	0
bin	92	0
bin	94	0
bin	96	36
bin	98	0
bin	100	0
bin	102	0
bin	104	0
bin	106	0
bin	108	0
bin	110	0
bin	112	0
bin	114	0
bin	116	0
bin	118	0
bin	120	0
bin	122	0
scalar Q2.server.eth[3].mac txPk:count 3736
attr interpolationmode none
attr recordingmode count
attr source packetSentToLower
attr title "packets transmitted, count"
scalar Q2.server.eth[3].mac txPk:sum(packetBytes) 1227908
attr interpolationmode none
attr recordingmode sum(packetBytes)
attr source packetSentToLower
attr title "packets transmitted, sum(packetBytes)"
scalar Q2.server.eth[3].mac packetReceivedFromUpper:count 3736
attr interpolationmode none
attr recordingmode count
attr source packetReceivedFromUpper
attr title "packet bytes from higher layer, count"
scalar Q2.server.eth[3].mac packetReceivedFromUpper:sum(packetBytes) 1216680
attr interpolationmode none
attr recordingmode sum(packetBytes)
attr source packetReceivedFromUpper
attr title "packet bytes from higher layer, sum(packetBytes)"
scalar Q2.server.eth[3].mac passedUpPk:count 3737
attr interpolationmode none
attr recordingmode count
attr source packetSentToUpper
attr title "packets passed to higher layer, count"
scalar Q2.server.eth[3].mac passedUpPk:sum(packetBytes) 1227972
attr interpolationmode none
attr recordingmode sum(packetBytes)
attr source packetSentToUpper
attr title "packets passed to higher layer, sum(packetBytes)"
scalar Q2.server.eth[3].mac packetDropIncorrectlyReceived:count 0
attr interpolationmode none
attr recordingmode count
attr source packetDropReasonIsIncorrectlyReceived(packetDropped)
attr title "packet drop: incorrectly received, count"
scalar Q2.server.eth[3].mac packetDropIncorrectlyReceived:sum(packetBytes) 0
attr interpolationmode none
attr recordingmode sum(packetBytes)
attr source packetDropReasonIsIncorrectlyReceived(packetDropped)
attr title "packet drop: incorrectly received, sum(packetBytes)"
scalar Q2.server.eth[3].mac packetDropInterfaceDown:count 0
attr interpolationmode none
attr recordingmode count
attr source packetDropReasonIsInterfaceDown(packetDropped)
attr title "packet drop: interface down, count"
scalar Q2.server.eth[3].mac packetDropInterfaceDown:sum(packetBytes) 0
attr interpolationmode none
attr recordingmode sum(packetBytes)
attr source packetDropReasonIsInterfaceDown(packetDropped)
attr title "packet drop: interface down, sum(packetBytes)"
scalar Q2.server.eth[3].mac packetDropNotAddressedToUs:count 0
attr interpolationmode none
attr recordingmode count
attr source packetDropReasonIsNotAddressedToUs(packetDropped)
attr title "packet drop: not addressed to us, count"
scalar Q2.server.eth[3].mac packetDropNotAddressedToUs:sum(packetBytes) 0
attr interpolationmode none
attr recordingmode sum(packetBytes)
attr source packetDropReasonIsNotAddressedToUs(packetDropped)
attr title "packet drop: not addressed to us, sum(packetBytes)"
scalar Q2.server.eth[3].mac rxPausePkUnits:count 0
attr interpolationmode none
attr recordingmode count
attr title "pause units received, count"
scalar Q2.server.eth[3].mac rxPausePkUnits:sum 0
attr interpolationmode none
attr recordingmode sum
attr title "pause units received, sum"
scalar Q2.server.eth[3].mac txPausePkUnits:count 0
attr interpolationmode none
attr recordingmode count
attr title "pause units sent, count"
scalar Q2.server.eth[3].mac txPausePkUnits:sum 0
attr interpolationmode none
attr recordingmode sum
attr title "pause units sent, sum"
scalar Q2.server.eth[3].mac rxPkOk:count 3737
attr interpolationmode none
attr recordingmode count
attr source rxPkOk
attr title "packets received OK, count"
scalar Q2.server.eth[3].mac rxPkOk:sum(packetBytes) 1227972
attr interpolationmode none
attr recordingmode sum(packetBytes)
attr source rxPkOk
attr title "packets received OK, sum(packetBytes)"
par Q2.server.eth[3] typename "\"inet.linklayer.ethernet.basic.EthernetInterface\""
[...]
par Q2.client2.ipv4.lp.out[2].channel typename "\"ned.IdealChannel\""
par Q2.client2.ipv4.ifIn.channel typename "\"ned.IdealChannel\""
par Q2.client2.ipv4.configurator typename "\"inet.networklayer.configurator.ipv4.Ipv4NodeConfigurator\""
par Q2.client2.ipv4.configurator interfaceTableModule "\"Q2.client2.interfaceTable\""
par Q2.client2.ipv4.configurator routingTableModule "\"Q2.client2.ipv4.routingTable\""
par Q2.client2.ipv4.configurator networkConfiguratorModule "\"configurator\""
par Q2.client2.ipv4.configurator configureRoutingTable true
par Q2.client2.ipv4.routingTable typename "\"inet.networklayer.ipv4.Ipv4RoutingTable\""
par Q2.client2.ipv4.routingTable interfaceTableModule "\"Q2.client2.interfaceTable\""
par Q2.client2.ipv4.routingTable routerId "\"auto\""
par Q2.client2.ipv4.routingTable netmaskRoutes "\"*\""
par Q2.client2.ipv4.routingTable forwarding false
par Q2.client2.ipv4.routingTable multicastForwarding false
par Q2.client2.ipv4.routingTable useAdminDist false
par Q2.client2.ipv4.routingTable routingFile "\"\""
par Q2.client2.ipv4.natTable typename "\"inet.networklayer.ipv4.Ipv4NatTable\""
par Q2.client2.ipv4.natTable networkProtocolModule "\"^.ip\""
par Q2.client2.ipv4.natTable config "<config/> at content:1"
par Q2.client2.ipv4.up typename "\"inet.common.MessageDispatcher\""
par Q2.client2.ipv4.up displayStringTextFormat "\"processed %p pk (%l)\""
par Q2.client2.ipv4.up interfaceTableModule "\"Q2.client2.interfaceTable\""
par Q2.client2.ipv4.up forwardServiceRegistration true
par Q2.client2.ipv4.up forwardProtocolRegistration true
par Q2.client2.ipv4.up interfaceMapping {}
par Q2.client2.ipv4.up serviceMapping {}
par Q2.client2.ipv4.up protocolMapping {}
par Q2.client2.ipv4.igmp typename "\"inet.networklayer.ipv4.Igmpv2\""
par Q2.client2.ipv4.igmp interfaceTableModule "\"Q2.client2.interfaceTable\""
par Q2.client2.ipv4.igmp routingTableModule "\"Q2.client2.ipv4.routingTable\""
par Q2.client2.ipv4.igmp crcMode "\"declared\""
attr enum declared,computed
par Q2.client2.ipv4.igmp enabled true
par Q2.client2.ipv4.igmp robustnessVariable 2
par Q2.client2.ipv4.igmp queryInterval 125s
attr unit s
par Q2.client2.ipv4.igmp queryResponseInterval 10s
attr unit s
par Q2.client2.ipv4.igmp groupMembershipInterval 260s
attr unit s
par Q2.client2.ipv4.igmp otherQuerierPresentInterval 255s
attr unit s
par Q2.client2.ipv4.igmp startupQueryInterval 31.25s
attr unit s
par Q2.client2.ipv4.igmp startupQueryCount 2
par Q2.client2.ipv4.igmp lastMemberQueryInterval 1s
attr unit s
par Q2.client2.ipv4.igmp lastMemberQueryCount 2
par Q2.client2.ipv4.igmp unsolicitedReportInterval 10s
attr unit s
par Q2.client2.ipv4.icmp typename "\"inet.networklayer.ipv4.Icmp\""
par Q2.client2.ipv4.icmp interfaceTableModule "\"Q2.client2.interfaceTable\""
par Q2.client2.ipv4.icmp routingTableModule "\"Q2.client2.ipv4.routingTable\""
par Q2.client2.ipv4.icmp crcMode "\"declared\""
attr enum declared,computed
attr mutable ""
par Q2.client2.ipv4.icmp quoteLength 8B
attr mutable ""
attr unit B
par Q2.client2.ipv4.mp typename "\"inet.common.MessageDispatcher\""
par Q2.client2.ipv4.mp displayStringTextFormat "\"processed %p pk (%l)\""
par Q2.client2.ipv4.mp interfaceTableModule "\"Q2.client2.interfaceTable\""
par Q2.client2.ipv4.mp forwardServiceRegistration true
par Q2.client2.ipv4.mp forwardProtocolRegistration true
par Q2.client2.ipv4.mp interfaceMapping {}
par Q2.client2.ipv4.mp serviceMapping {}
par Q2.client2.ipv4.mp protocolMapping {}
par Q2.client2.ipv4.ip typename "\"inet.networklayer.ipv4.Ipv4\""
par Q2.client2.ipv4.ip interfaceTableModule "\"Q2.client2.interfaceTable\""
par Q2.client2.ipv4.ip routingTableModule "\"Q2.client2.ipv4.routingTable\""
par Q2.client2.ipv4.ip arpModule "\"Q2.client2.ipv4.arp\""
par Q2.client2.ipv4.ip icmpModule "\"Q2.client2.ipv4.icmp\""
par Q2.client2.ipv4.ip crcMode "\"declared\""
attr enum declared,computed
par Q2.client2.ipv4.ip timeToLive 32
par Q2.client2.ipv4.ip multicastTimeToLive 32
par Q2.client2.ipv4.ip fragmentTimeout 60s
attr unit s
par Q2.client2.ipv4.ip limitedBroadcast false
par Q2.client2.ipv4.ip directBroadcastInterfaces "\"\""
par Q2.client2.ipv4.ip enableLocalOutMulticastRouting false
par Q2.client2.ipv4.ip enableTimestampOption false
par Q2.client2.ipv4.ip maxLifetime -1s
attr unit s
scalar Q2.client2.ipv4.ip packetDropAddressResolutionFailed:count 0
attr interpolationmode none
attr recordingmode count
attr source packetDropReasonIsAddressResolutionFailed(packetDropped)
attr title "packet drop: address resolution failed, count"
scalar Q2.client2.ipv4.ip packetDropAddressResolutionFailed:sum(packetBytes) 0
attr interpolationmode none
attr recordingmode sum(packetBytes)
attr source packetDropReasonIsAddressResolutionFailed(packetDropped)
attr title "packet drop: address resolution failed, sum(packetBytes)"
scalar Q2.client2.ipv4.ip packetDropHopLimitReached:count 0
attr interpolationmode none
attr recordingmode count
attr source packetDropReasonIsHopLimitReached(packetDropped)
attr title "packet drop: hop limit reached, count"
scalar Q2.client2.ipv4.ip packetDropHopLimitReached:sum(packetBytes) 0
attr interpolationmode none
attr recordingmode sum(packetBytes)
attr source packetDropReasonIsHopLimitReached(packetDropped)
attr title "packet drop: hop limit reached, sum(packetBytes)"
scalar Q2.client2.ipv4.ip packetDropForwardingDisabled:count 0
attr interpolationmode none
attr recordingmode count
attr source packetDropReasonIsForwardingDisabled(packetDropped)
attr title "packet drop: forwarding disabled, count"
scalar Q2.client2.ipv4.ip packetDropForwardingDisabled:sum(packetBytes) 0
attr interpolationmode none
attr recordingmode sum(packetBytes)
attr source packetDropReasonIsForwardingDisabled(packetDropped)
attr title "packet drop: forwarding disabled, sum(packetBytes)"
scalar Q2.client2.ipv4.ip packetDropLifetimeExpired:count 0
attr interpolationmode none
attr recordingmode count
attr source packetDropReasonIsLifetimeExpired(packetDropped)
attr title "packet drop: lifetime expired, count"
scalar Q2.client2.ipv4.ip packetDropLifetimeExpired:sum(packetBytes) 0
attr interpolationmode none
attr recordingmode sum(packetBytes)
attr source packetDropReasonIsLifetimeExpired(packetDropped)
attr title "packet drop: lifetime expired, sum(packetBytes)"
scalar Q2.client2.ipv4.ip packetDropNoInterfaceFound:count 0
attr interpolationmode none
attr recordingmode count
attr source packetDropReasonIsNoInterfaceFound(packetDropped)
attr title "packet drop: no interface found, count"
scalar Q2.client2.ipv4.ip packetDropNoInterfaceFound:sum(packetBytes) 0
attr interpolationmode none
attr recordingmode sum(packetBytes)
attr source packetDropReasonIsNoInterfaceFound(packetDropped)
attr title "packet drop: no interface found, sum(packetBytes)"
scalar Q2.client2.ipv4.ip packetDropNoRouteFound:count 0
attr interpolationmode none
attr recordingmode count
attr source packetDropReasonIsNoRouteFound(packetDropped)
attr title "packet drop: no route found, count"
scalar Q2.client2.ipv4.ip packetDropNoRouteFound:sum(packetBytes) 0
attr interpolationmode none
attr recordingmode sum(packetBytes)
attr source packetDropReasonIsNoRouteFound(packetDropped)
attr title "packet drop: no route found, sum(packetBytes)"
scalar Q2.client2.ipv4.ip packetDropUndefined:count 0
attr interpolationmode none
attr recordingmode count
attr source packetDropReasonIsUndefined(packetDropped)
attr title "packet drop: undefined, count"
scalar Q2.client2.ipv4.ip packetDropUndefined:sum(packetBytes) 0
attr interpolationmode none
attr recordingmode sum(packetBytes)
attr source packetDropReasonIsUndefined(packetDropped)
attr title "packet drop: undefined, sum(packetBytes)"
par Q2.client2.ipv4.arp typename "\"inet.networklayer.arp.ipv4.Arp\""
par Q2.client2.ipv4.arp interfaceTableModule "\"Q2.client2.interfaceTable\""
par Q2.client2.ipv4.arp routingTableModule "\"Q2.client2.ipv4.routingTable\""
par Q2.client2.ipv4.arp retryTimeout 1s
attr unit s
par Q2.client2.ipv4.arp retryCount 3
par Q2.client2.ipv4.arp cacheTimeout 120s
attr unit s
par Q2.client2.ipv4.arp proxyArpInterfaces "\"\""
scalar Q2.client2.ipv4.arp arpReplySent:count 0
attr recordingmode count
attr source arpReplySent
attr title "ARP replies sent, count"
scalar Q2.client2.ipv4.arp arpReplySent:sum(packetBytes) 0
attr recordingmode sum(packetBytes)
attr source arpReplySent
attr title "ARP replies sent, sum(packetBytes)"
scalar Q2.client2.ipv4.arp arpRequestSent:count 1
attr recordingmode count
attr source arpRequestSent
attr title "ARP request sent, count"
scalar Q2.client2.ipv4.arp arpRequestSent:sum(packetBytes) 28
attr recordingmode sum(packetBytes)
attr source arpRequestSent
attr title "ARP request sent, sum(packetBytes)"
scalar Q2.client2.ipv4.arp arpResolutionFailed:count 0
attr recordingmode count
attr title "ARP failed resolutions, count"
scalar Q2.client2.ipv4.arp arpResolutionCompleted:count 1
attr recordingmode count
attr title "ARP completed resolutions, count"
scalar Q2.client2.ipv4.arp arpResolutionInitiated:count 1
attr recordingmode count
attr title "ARP initiated resolutions, count"
par Q2.client2.ipv4.lp typename "\"inet.common.MessageDispatcher\""
par Q2.client2.ipv4.lp displayStringTextFormat "\"processed %p pk (%l)\""
par Q2.client2.ipv4.lp interfaceTableModule "\"Q2.client2.interfaceTable\""
par Q2.client2.ipv4.lp forwardServiceRegistration true
par Q2.client2.ipv4.lp forwardProtocolRegistration true
par Q2.client2.ipv4.lp interfaceMapping {}
par Q2.client2.ipv4.lp serviceMapping {}
par Q2.client2.ipv4.lp protocolMapping {}
par Q2.client2.ipv4 typename "\"inet.networklayer.ipv4.Ipv4NetworkLayer\""
par Q2.client2.ipv4 forwarding false
par Q2.client2.ipv4 multicastForwarding false
par Q2.client2.ipv4 hasIpsec false
par Q2.client2.ipv4 interfaceTableModule "\"Q2.client2.interfaceTable\""
par Q2.client2.ipv4 displayStringTextFormat "\"%i\""
par Q2.client2.nl typename "\"inet.common.MessageDispatcher\""
par Q2.client2.nl displayStringTextFormat "\"processed %p pk (%l)\""
par Q2.client2.nl interfaceTableModule "\"Q2.client2.interfaceTable\""
par Q2.client2.nl forwardServiceRegistration true
par Q2.client2.nl forwardProtocolRegistration true
par Q2.client2.nl interfaceMapping {}
par Q2.client2.nl serviceMapping {}
par Q2.client2.nl protocolMapping {}
par Q2.client2.udp typename "\"inet.transportlayer.udp.Udp\""
par Q2.client2.udp interfaceTableModule "\"Q2.client2.interfaceTable\""
par Q2.client2.udp icmpModule "\"^.ipv4.icmp\""
par Q2.client2.udp icmpv6Module "\"^.ipv6.icmpv6\""
par Q2.client2.udp crcMode "\"declared\""
attr enum disabled,declared,computed
par Q2.client2.udp defaultMulticastLoop true
scalar Q2.client2.udp packetReceived:count 0
attr interpolationmode none
attr recordingmode count
attr source packetReceived
attr title "packets received, count"
scalar Q2.client2.udp packetReceived:sum(packetBytes) 0
attr interpolationmode none
attr recordingmode sum(packetBytes)
attr source packetReceived
attr title "packets received, sum(packetBytes)"
scalar Q2.client2.udp packetSent:count 0
attr interpolationmode none
attr recordingmode count
attr source packetSent
attr title "packets sent, count"
scalar Q2.client2.udp packetSent:sum(packetBytes) 0
attr interpolationmode none
attr recordingmode sum(packetBytes)
attr source packetSent
attr title "packets sent, sum(packetBytes)"
scalar Q2.client2.udp passedUpPk:count 0
attr interpolationmode none
attr recordingmode count
attr source packetSentToUpper
attr title "packets passed up, count"
scalar Q2.client2.udp droppedPkWrongPort:count 0
attr interpolationmode none
attr recordingmode count
attr source packetDropReasonIsNoPortFound(packetDropped)
attr title "packets dropped (wrong port), count"
scalar Q2.client2.udp droppedPkBadChecksum:count 0
attr interpolationmode none
attr recordingmode count
attr source packetDropReasonIsIncorrectlyReceived(packetDropped)
attr title "packets dropped (checksum error), count"
par Q2.client2.tcp.conn-8 typename "\"inet.transportlayer.tcp.TcpConnection\""
par Q2.client2.tcp typename "\"inet.transportlayer.tcp.Tcp\""
par Q2.client2.tcp crcMode "\"declared\""
attr enum declared,computed
par Q2.client2.tcp advertisedWindow 7504
par Q2.client2.tcp delayedAcksEnabled false
par Q2.client2.tcp nagleEnabled true
par Q2.client2.tcp limitedTransmitEnabled false
par Q2.client2.tcp increasedIWEnabled false
par Q2.client2.tcp sackSupport false
par Q2.client2.tcp windowScalingSupport false
par Q2.client2.tcp windowScalingFactor -1
par Q2.client2.tcp timestampSupport false
par Q2.client2.tcp mss 536
par Q2.client2.tcp msl 120s
attr unit s
par Q2.client2.tcp tcpAlgorithmClass "\"TcpReno\""
attr examples TcpVegas,TcpWestwood,DcTcp,TcpNewReno,TcpReno,TcpTahoe,TcpNoCongestionControl
par Q2.client2.tcp dupthresh 3
par Q2.client2.tcp initialSsthresh 4294967295
par Q2.client2.tcp stopOperationExtraTime 0s
attr unit s
par Q2.client2.tcp stopOperationTimeout 2s
attr unit s
par Q2.client2.tcp ecnWillingness false
par Q2.client2.tcp dctcpGamma 0.0625
par Q2.client2.tn typename "\"inet.common.MessageDispatcher\""
par Q2.client2.tn displayStringTextFormat "\"processed %p pk (%l)\""
par Q2.client2.tn interfaceTableModule "\"Q2.client2.interfaceTable\""
par Q2.client2.tn forwardServiceRegistration true
par Q2.client2.tn forwardProtocolRegistration true
par Q2.client2.tn interfaceMapping {}
par Q2.client2.tn serviceMapping {}
par Q2.client2.tn protocolMapping {}
par Q2.client2.app[0] typename "\"inet.applications.tcpapp.TcpSessionApp\""
par Q2.client2.app[0] localAddress "\"\""
par Q2.client2.app[0] localPort -1
par Q2.client2.app[0] active true
par Q2.client2.app[0] connectAddress "\"server\""
par Q2.client2.app[0] connectPort 1000
par Q2.client2.app[0] dataTransferMode "\"bytecount\""
attr enum bytecount,object,bytestream
par Q2.client2.app[0] autoRead true
par Q2.client2.app[0] readSize -1B
attr unit B
par Q2.client2.app[0] readDelay -1s
attr unit s
par Q2.client2.app[0] tOpen 1s
attr unit s
par Q2.client2.app[0] tSend 1s
attr unit s
par Q2.client2.app[0] sendBytes 1000000B
attr unit B
par Q2.client2.app[0] sendScript "\"\""
par Q2.client2.app[0] tClose 2s
attr unit s
par Q2.client2.app[0] timeToLive -1
par Q2.client2.app[0] dscp -1
par Q2.client2.app[0] tos -1
par Q2.client2.app[0] stopOperationExtraTime -1s
attr unit s
par Q2.client2.app[0] stopOperationTimeout 2s
attr unit s
scalar Q2.client2.app[0] bytesRcvd 1000000
scalar Q2.client2.app[0] bytesSent 1000000
scalar Q2.client2.app[0] packetReceived:count 1866
attr interpolationmode none
attr recordingmode count
attr source packetReceived
attr title "packets received, count"
scalar Q2.client2.app[0] packetReceived:sum(packetBytes) 1000000
attr interpolationmode none
attr recordingmode sum(packetBytes)
attr source packetReceived
attr title "packets received, sum(packetBytes)"
statistic Q2.client2.app[0] endToEndDelay:histogram
field count 1866
field mean 0.00072946996784566
field stddev 4.4402908933137e-05
field min 5.493e-05
field max 0.00073381
field sum 1.36119096
field sqrsum 0.00099662499399301
attr interpolationmode none
attr recordingmode histogram
attr source dataAge(packetReceived)
attr title "end-to-end delay"
attr unit s
bin	-inf	0
bin	0	0
bin	2e-05	0
bin	4e-05	1
bin	6e-05	0
bin	8e-05	0
bin	0.0001	3
bin	0.00012	0
bin	0.00014	0
bin	0.00016	0
bin	0.00018	0
bin	0.0002	4
bin	0.00022	0
bin	0.00024	0
bin	0.00026	0
bin	0.00028	0
bin	0.0003	0
bin	0.00032	0
bin	0.00034	0
bin	0.00036	0
bin	0.00038	8
bin	0.0004	0
bin	0.00042	0
bin	0.00044	0
bin	0.00046	0
bin	0.00048	0
bin	0.0005	0
bin	0.00052	0
bin	0.00054	0
bin	0.00056	0
bin	0.00058	0
bin	0.0006	0
bin	0.00062	0
bin	0.00064	2
bin	0.00066	0
bin	0.00068	14
bin	0.0007	0
bin	0.00072	1834
bin	0.00074	0
bin	0.00076	0
bin	0.00078	0
bin	0.0008	0
bin	0.00082	0
bin	0.00084	0
bin	0.00086	0
bin	0.00088	0
bin	0.0009	0
bin	0.00092	0
statistic Q2.client2.app[0] endToEndDelay:weightedHistogram
field count 1866
field mean 0.00072957972144003
field stddev 4.3628824152724e-05
field min 5.493e-05
field max 0.00073381
field weights 8000000
field weightedSum 5836.6377715202
field sqrSumWeights 34299944960
field weightedSqrSum 4.2735121927347
attr interpolationmode none
attr recordingmode weightedHistogram
attr source dataAge(packetReceived)
attr title "end-to-end delay, weightedHistogram"
attr unit s
bin	-inf	0
bin	0	0
bin	2e-05	0
bin	4e-05	4288
bin	6e-05	0
bin	8e-05	0
bin	0.0001	11456
bin	0.00012	0
bin	0.00014	0
bin	0.00016	0
bin	0.00018	0
bin	0.0002	17152
bin	0.00022	0
bin	0.00024	0
bin	0.00026	0
bin	0.00028	0
bin	0.0003	0
bin	0.00032	0
bin	0.00034	0
bin	0.00036	0
bin	0.00038	34304
bin	0.0004	0
bin	0.00042	0
bin	0.00044	0
bin	0.00046	0
bin	0.00048	0
bin	0.0005	0
bin	0.00052	0
bin	0.00054	0
bin	0.00056	0
bin	0.00058	0
bin	0.0006	0
bin	0.00062	0
bin	0.00064	8576
bin	0.00066	0
bin	0.00068	60032
bin	0.0007	0
bin	0.00072	7864192
bin	0.00074	0
bin	0.00076	0
bin	0.00078	0
bin	0.0008	0
bin	0.00082	0
bin	0.00084	0
bin	0.00086	0
bin	0.00088	0
bin	0.0009	0
bin	0.00092	0
scalar Q2.client2.app[0] packetSent:count 1
attr interpolationmode none
attr recordingmode count
attr source packetSent
attr title "packets sent, count"
scalar Q2.client2.app[0] packetSent:sum(packetBytes) 1000000
attr interpolationmode none
attr recordingmode sum(packetBytes)
attr source packetSent
attr title "packets sent, sum(packetBytes)"
par Q2.client2.at typename "\"inet.common.MessageDispatcher\""
par Q2.client2.at displayStringTextFormat "\"processed %p pk (%l)\""
par Q2.client2.at interfaceTableModule "\"Q2.client2.interfaceTable\""
par Q2.client2.at forwardServiceRegistration true
par Q2.client2.at forwardProtocolRegistration true
par Q2.client2.at interfaceMapping {}
par Q2.client2.at serviceMapping {}
par Q2.client2.at protocolMapping {}
par Q2.client2 typename "\"inet.node.inet.StandardHost\""
par Q2.client2 hasStatus false
par Q2.client2 hasEnvironment false
par Q2.client2 osgModel "\"\""
par Q2.client2 osgModelColor "\"\""
par Q2.client2 canvasImage "\"\""
par Q2.client2 canvasImageColor "\"\""
par Q2.client2 recordPcap false
par Q2.client2 numPcapRecorders 0
par Q2.client2 numLoInterfaces 1
par Q2.client2 numWlanInterfaces 0
par Q2.client2 numEthInterfaces 0
par Q2.client2 numPppInterfaces 0
par Q2.client2 numTunInterfaces 0
par Q2.client2 numVirtInterfaces 0
par Q2.client2 fcsMode "\"declared\""
attr enum declared,computed
par Q2.client2 hasIpv4 true
par Q2.client2 hasIpv6 false
par Q2.client2 hasGn false
par Q2.client2 forwarding false
par Q2.client2 multicastForwarding false
par Q2.client2 hasUdp true
par Q2.client2 hasTcp true
par Q2.client2 hasSctp false
par Q2.client2 numApps 1
par Q2.configurator typename "\"inet.networklayer.configurator.ipv4.Ipv4NetworkConfigurator\""
par Q2.configurator minLinkWeight 0.001
par Q2.configurator configureIsolatedNetworksSeparatly false
par Q2.configurator config "<config>...</config> at content:1"
par Q2.configurator assignAddresses true
par Q2.configurator assignUniqueAddresses true
par Q2.configurator assignDisjunctSubnetAddresses true
par Q2.configurator addStaticRoutes true
par Q2.configurator addDefaultRoutes true
par Q2.configurator addSubnetRoutes true
par Q2.configurator addDirectRoutes true
par Q2.configurator optimizeRoutes true
par Q2.configurator updateRoutes false
par Q2.configurator dumpTopology false
par Q2.configurator dumpLinks false
par Q2.configurator dumpAddresses false
par Q2.configurator dumpRoutes false
par Q2.configurator dumpConfig "\"\""
par Q2 typename "\"q2.simulations.Q2\""

